# File generated by Flopy version 3.3.4 on 11/17/2021 at 14:02:46.
BEGIN options
END options

BEGIN timing
  TDIS6  modelo_Norte.tdis
END timing

BEGIN models
  gwf6  modelo_Norte.nam  modelo_Norte
END models

BEGIN exchanges
END exchanges

BEGIN solutiongroup  1
  ims6  modelo_Norte.ims  modelo_Norte
END solutiongroup  1

