# File generated by Flopy version 3.3.4 on 10/15/2021 at 16:06:57.
BEGIN options
END options

BEGIN timing
  TDIS6  modelo_Norte.tdis
END timing

BEGIN models
  gwf6  modelo_Norte.nam  modelo_Norte
END models

BEGIN exchanges
END exchanges

BEGIN solutiongroup  1
  ims6  modelo_Norte.ims  modelo_Norte
END solutiongroup  1

