# File generated by Flopy version 3.3.2 on 02/17/2021 at 10:58:54.
BEGIN options
  PRINT_INPUT
  PRINT_FLOWS
  SAVE_FLOWS
END options

BEGIN dimensions
  MAXBOUND  2055
END dimensions

BEGIN period  1
  1 1 16  1.27314815E-06
  1 2 15  1.27314815E-06
  1 2 16  1.27314815E-06
  1 3 15  1.27314815E-06
  1 3 16  1.27314815E-06
  1 4 15  1.27314815E-06
  1 4 16  1.27314815E-06
  1 5 15  1.27314815E-06
  1 5 16  1.27314815E-06
  1 5 30  1.27314815E-06
  1 5 31  1.27314815E-06
  1 6 14  1.27314815E-06
  1 6 15  1.27314815E-06
  1 6 16  1.27314815E-06
  1 6 29  1.27314815E-06
  1 6 30  1.27314815E-06
  1 6 31  1.27314815E-06
  1 7 14  1.27314815E-06
  1 7 15  1.27314815E-06
  1 7 16  1.27314815E-06
  1 7 17  1.27314815E-06
  1 7 30  1.27314815E-06
  1 7 31  1.27314815E-06
  1 7 32  1.27314815E-06
  1 8 15  1.27314815E-06
  1 8 16  1.27314815E-06
  1 8 17  1.27314815E-06
  1 8 18  1.27314815E-06
  1 8 19  1.27314815E-06
  1 8 30  1.27314815E-06
  1 8 31  1.27314815E-06
  1 8 32  1.27314815E-06
  1 9 15  1.27314815E-06
  1 9 16  1.27314815E-06
  1 9 17  1.27314815E-06
  1 9 18  1.27314815E-06
  1 9 19  1.27314815E-06
  1 9 26  1.27314815E-06
  1 9 27  1.27314815E-06
  1 9 30  1.27314815E-06
  1 9 31  1.27314815E-06
  1 9 32  1.27314815E-06
  1 10 15  1.27314815E-06
  1 10 16  1.27314815E-06
  1 10 17  1.27314815E-06
  1 10 18  1.27314815E-06
  1 10 19  1.27314815E-06
  1 10 26  1.27314815E-06
  1 10 27  1.27314815E-06
  1 10 31  1.27314815E-06
  1 10 32  1.27314815E-06
  1 11 16  1.27314815E-06
  1 11 17  1.27314815E-06
  1 11 18  1.27314815E-06
  1 11 19  1.27314815E-06
  1 11 25  1.27314815E-06
  1 11 26  1.27314815E-06
  1 11 31  1.27314815E-06
  1 11 32  1.27314815E-06
  1 12 16  1.27314815E-06
  1 12 17  1.27314815E-06
  1 12 18  1.27314815E-06
  1 12 19  1.27314815E-06
  1 12 25  1.27314815E-06
  1 12 26  1.27314815E-06
  1 12 27  1.27314815E-06
  1 12 28  1.27314815E-06
  1 12 29  1.27314815E-06
  1 12 30  1.27314815E-06
  1 12 31  1.27314815E-06
  1 12 32  1.27314815E-06
  1 12 33  1.27314815E-06
  1 13 16  1.27314815E-06
  1 13 17  1.27314815E-06
  1 13 18  1.27314815E-06
  1 13 19  1.27314815E-06
  1 13 25  1.27314815E-06
  1 13 26  1.27314815E-06
  1 13 27  1.27314815E-06
  1 13 28  1.27314815E-06
  1 13 29  1.27314815E-06
  1 13 30  1.27314815E-06
  1 13 31  1.27314815E-06
  1 13 32  1.27314815E-06
  1 13 33  1.27314815E-06
  1 13 34  1.27314815E-06
  1 14 16  1.27314815E-06
  1 14 17  1.27314815E-06
  1 14 18  1.27314815E-06
  1 14 25  1.27314815E-06
  1 14 26  1.27314815E-06
  1 14 27  1.27314815E-06
  1 14 28  1.27314815E-06
  1 14 29  1.27314815E-06
  1 14 30  1.27314815E-06
  1 14 31  1.27314815E-06
  1 14 32  1.27314815E-06
  1 14 33  1.27314815E-06
  1 14 34  1.27314815E-06
  1 14 35  1.27314815E-06
  1 15 16  1.27314815E-06
  1 15 17  1.27314815E-06
  1 15 18  1.27314815E-06
  1 15 24  1.27314815E-06
  1 15 25  1.27314815E-06
  1 15 26  1.27314815E-06
  1 15 27  1.27314815E-06
  1 15 28  1.27314815E-06
  1 15 29  1.27314815E-06
  1 15 30  1.27314815E-06
  1 15 31  1.27314815E-06
  1 15 32  1.27314815E-06
  1 15 33  1.27314815E-06
  1 15 34  1.27314815E-06
  1 15 35  1.27314815E-06
  1 16 16  1.27314815E-06
  1 16 17  1.27314815E-06
  1 16 18  1.27314815E-06
  1 16 24  1.27314815E-06
  1 16 25  1.27314815E-06
  1 16 26  1.27314815E-06
  1 16 27  1.27314815E-06
  1 16 29  1.27314815E-06
  1 16 30  1.27314815E-06
  1 16 31  1.27314815E-06
  1 16 32  1.27314815E-06
  1 16 33  1.27314815E-06
  1 16 34  1.27314815E-06
  1 16 35  1.27314815E-06
  1 17 15  1.27314815E-06
  1 17 16  1.27314815E-06
  1 17 17  1.27314815E-06
  1 17 18  1.27314815E-06
  1 17 24  1.27314815E-06
  1 17 25  1.27314815E-06
  1 17 26  1.27314815E-06
  1 17 27  1.27314815E-06
  1 17 28  1.27314815E-06
  1 17 29  1.27314815E-06
  1 17 30  1.27314815E-06
  1 17 31  1.27314815E-06
  1 17 32  1.27314815E-06
  1 17 33  1.27314815E-06
  1 17 34  1.27314815E-06
  1 17 35  1.27314815E-06
  1 18 15  1.27314815E-06
  1 18 16  1.27314815E-06
  1 18 17  1.27314815E-06
  1 18 18  1.27314815E-06
  1 18 19  1.27314815E-06
  1 18 23  1.27314815E-06
  1 18 24  1.27314815E-06
  1 18 25  1.27314815E-06
  1 18 26  1.27314815E-06
  1 18 27  1.27314815E-06
  1 18 28  1.27314815E-06
  1 18 29  1.27314815E-06
  1 18 30  1.27314815E-06
  1 18 31  1.27314815E-06
  1 18 32  1.27314815E-06
  1 18 33  1.27314815E-06
  1 18 34  1.27314815E-06
  1 18 35  1.27314815E-06
  1 18 43  1.27314815E-06
  1 19 15  1.27314815E-06
  1 19 16  1.27314815E-06
  1 19 17  1.27314815E-06
  1 19 18  1.27314815E-06
  1 19 19  1.27314815E-06
  1 19 23  1.27314815E-06
  1 19 24  1.27314815E-06
  1 19 25  1.27314815E-06
  1 19 26  1.27314815E-06
  1 19 27  1.27314815E-06
  1 19 28  1.27314815E-06
  1 19 29  1.27314815E-06
  1 19 30  1.27314815E-06
  1 19 31  1.27314815E-06
  1 19 32  1.27314815E-06
  1 19 33  1.27314815E-06
  1 19 34  1.27314815E-06
  1 19 35  1.27314815E-06
  1 19 36  1.27314815E-06
  1 19 37  1.27314815E-06
  1 19 38  1.27314815E-06
  1 19 39  1.27314815E-06
  1 19 40  1.27314815E-06
  1 19 41  1.27314815E-06
  1 19 42  1.27314815E-06
  1 19 43  1.27314815E-06
  1 19 44  1.27314815E-06
  1 19 45  1.27314815E-06
  1 20 15  1.27314815E-06
  1 20 16  1.27314815E-06
  1 20 17  1.27314815E-06
  1 20 18  1.27314815E-06
  1 20 23  1.27314815E-06
  1 20 24  1.27314815E-06
  1 20 25  1.27314815E-06
  1 20 26  1.27314815E-06
  1 20 27  1.27314815E-06
  1 20 28  1.27314815E-06
  1 20 32  1.27314815E-06
  1 20 33  1.27314815E-06
  1 20 34  1.27314815E-06
  1 20 35  1.27314815E-06
  1 20 36  1.27314815E-06
  1 20 37  1.27314815E-06
  1 20 38  1.27314815E-06
  1 20 39  1.27314815E-06
  1 20 40  1.27314815E-06
  1 20 41  1.27314815E-06
  1 20 42  1.27314815E-06
  1 20 43  1.27314815E-06
  1 20 44  1.27314815E-06
  1 20 45  1.27314815E-06
  1 20 46  1.27314815E-06
  1 21 15  1.27314815E-06
  1 21 16  1.27314815E-06
  1 21 17  1.27314815E-06
  1 21 18  1.27314815E-06
  1 21 21  1.27314815E-06
  1 21 22  1.27314815E-06
  1 21 23  1.27314815E-06
  1 21 24  1.27314815E-06
  1 21 25  1.27314815E-06
  1 21 26  1.27314815E-06
  1 21 27  1.27314815E-06
  1 21 28  1.27314815E-06
  1 21 29  1.27314815E-06
  1 21 32  1.27314815E-06
  1 21 33  1.27314815E-06
  1 21 34  1.27314815E-06
  1 21 35  1.27314815E-06
  1 21 36  1.27314815E-06
  1 21 37  1.27314815E-06
  1 21 38  1.27314815E-06
  1 21 39  1.27314815E-06
  1 21 40  1.27314815E-06
  1 21 41  1.27314815E-06
  1 21 43  1.27314815E-06
  1 21 44  1.27314815E-06
  1 21 45  1.27314815E-06
  1 21 46  1.27314815E-06
  1 22 15  1.27314815E-06
  1 22 16  1.27314815E-06
  1 22 17  1.27314815E-06
  1 22 18  1.27314815E-06
  1 22 19  1.27314815E-06
  1 22 21  1.27314815E-06
  1 22 22  1.27314815E-06
  1 22 23  1.27314815E-06
  1 22 24  1.27314815E-06
  1 22 25  1.27314815E-06
  1 22 26  1.27314815E-06
  1 22 27  1.27314815E-06
  1 22 28  1.27314815E-06
  1 22 29  1.27314815E-06
  1 22 32  1.27314815E-06
  1 22 33  1.27314815E-06
  1 22 34  1.27314815E-06
  1 22 35  1.27314815E-06
  1 22 36  1.27314815E-06
  1 22 37  1.27314815E-06
  1 22 38  1.27314815E-06
  1 22 39  1.27314815E-06
  1 22 40  1.27314815E-06
  1 22 41  1.27314815E-06
  1 22 42  1.27314815E-06
  1 22 43  1.27314815E-06
  1 22 44  1.27314815E-06
  1 22 45  1.27314815E-06
  1 22 46  1.27314815E-06
  1 22 47  1.27314815E-06
  1 22 48  1.27314815E-06
  1 22 49  1.27314815E-06
  1 23 15  1.27314815E-06
  1 23 16  1.27314815E-06
  1 23 17  1.27314815E-06
  1 23 18  1.27314815E-06
  1 23 19  1.27314815E-06
  1 23 21  1.27314815E-06
  1 23 22  1.27314815E-06
  1 23 23  1.27314815E-06
  1 23 24  1.27314815E-06
  1 23 25  1.27314815E-06
  1 23 26  1.27314815E-06
  1 23 27  1.27314815E-06
  1 23 28  1.27314815E-06
  1 23 29  1.27314815E-06
  1 23 30  1.27314815E-06
  1 23 32  1.27314815E-06
  1 23 33  1.27314815E-06
  1 23 34  1.27314815E-06
  1 23 35  1.27314815E-06
  1 23 36  1.27314815E-06
  1 23 37  1.27314815E-06
  1 23 38  1.27314815E-06
  1 23 39  1.27314815E-06
  1 23 40  1.27314815E-06
  1 23 41  1.27314815E-06
  1 23 42  1.27314815E-06
  1 23 43  1.27314815E-06
  1 23 44  1.27314815E-06
  1 23 45  1.27314815E-06
  1 23 46  1.27314815E-06
  1 23 47  1.27314815E-06
  1 23 48  1.27314815E-06
  1 23 49  1.27314815E-06
  1 24 15  1.27314815E-06
  1 24 16  1.27314815E-06
  1 24 17  1.27314815E-06
  1 24 18  1.27314815E-06
  1 24 19  1.27314815E-06
  1 24 21  1.27314815E-06
  1 24 22  1.27314815E-06
  1 24 23  1.27314815E-06
  1 24 24  1.27314815E-06
  1 24 25  1.27314815E-06
  1 24 26  1.27314815E-06
  1 24 27  1.27314815E-06
  1 24 28  1.27314815E-06
  1 24 29  1.27314815E-06
  1 24 30  1.27314815E-06
  1 24 32  1.27314815E-06
  1 24 33  1.27314815E-06
  1 24 34  1.27314815E-06
  1 24 35  1.27314815E-06
  1 24 36  1.27314815E-06
  1 24 37  1.27314815E-06
  1 24 38  1.27314815E-06
  1 24 39  1.27314815E-06
  1 24 40  1.27314815E-06
  1 24 41  1.27314815E-06
  1 24 42  1.27314815E-06
  1 24 43  1.27314815E-06
  1 24 44  1.27314815E-06
  1 24 45  1.27314815E-06
  1 24 46  1.27314815E-06
  1 24 47  1.27314815E-06
  1 24 48  1.27314815E-06
  1 24 49  1.27314815E-06
  1 25 15  1.27314815E-06
  1 25 16  1.27314815E-06
  1 25 17  1.27314815E-06
  1 25 18  1.27314815E-06
  1 25 19  1.27314815E-06
  1 25 21  1.27314815E-06
  1 25 22  1.27314815E-06
  1 25 23  1.27314815E-06
  1 25 24  1.27314815E-06
  1 25 25  1.27314815E-06
  1 25 26  1.27314815E-06
  1 25 27  1.27314815E-06
  1 25 28  1.27314815E-06
  1 25 29  1.27314815E-06
  1 25 32  1.27314815E-06
  1 25 33  1.27314815E-06
  1 25 34  1.27314815E-06
  1 25 35  1.27314815E-06
  1 25 36  1.27314815E-06
  1 25 40  1.27314815E-06
  1 25 41  1.27314815E-06
  1 25 42  1.27314815E-06
  1 25 43  1.27314815E-06
  1 25 44  1.27314815E-06
  1 25 45  1.27314815E-06
  1 25 46  1.27314815E-06
  1 25 47  1.27314815E-06
  1 25 48  1.27314815E-06
  1 25 49  1.27314815E-06
  1 26 14  1.27314815E-06
  1 26 15  1.27314815E-06
  1 26 16  1.27314815E-06
  1 26 17  1.27314815E-06
  1 26 18  1.27314815E-06
  1 26 19  1.27314815E-06
  1 26 20  1.27314815E-06
  1 26 21  1.27314815E-06
  1 26 22  1.27314815E-06
  1 26 23  1.27314815E-06
  1 26 24  1.27314815E-06
  1 26 25  1.27314815E-06
  1 26 26  1.27314815E-06
  1 26 27  1.27314815E-06
  1 26 28  1.27314815E-06
  1 26 29  1.27314815E-06
  1 26 34  1.27314815E-06
  1 26 35  1.27314815E-06
  1 26 36  1.27314815E-06
  1 26 37  1.27314815E-06
  1 26 40  1.27314815E-06
  1 26 41  1.27314815E-06
  1 26 42  1.27314815E-06
  1 26 43  1.27314815E-06
  1 26 44  1.27314815E-06
  1 26 45  1.27314815E-06
  1 26 46  1.27314815E-06
  1 26 47  1.27314815E-06
  1 26 48  1.27314815E-06
  1 26 49  1.27314815E-06
  1 26 50  1.27314815E-06
  1 26 51  1.27314815E-06
  1 27 14  1.27314815E-06
  1 27 15  1.27314815E-06
  1 27 16  1.27314815E-06
  1 27 17  1.27314815E-06
  1 27 18  1.27314815E-06
  1 27 19  1.27314815E-06
  1 27 20  1.27314815E-06
  1 27 22  1.27314815E-06
  1 27 23  1.27314815E-06
  1 27 24  1.27314815E-06
  1 27 25  1.27314815E-06
  1 27 26  1.27314815E-06
  1 27 27  1.27314815E-06
  1 27 35  1.27314815E-06
  1 27 36  1.27314815E-06
  1 27 37  1.27314815E-06
  1 27 38  1.27314815E-06
  1 27 41  1.27314815E-06
  1 27 42  1.27314815E-06
  1 27 43  1.27314815E-06
  1 27 44  1.27314815E-06
  1 27 45  1.27314815E-06
  1 27 46  1.27314815E-06
  1 27 47  1.27314815E-06
  1 27 48  1.27314815E-06
  1 27 49  1.27314815E-06
  1 27 50  1.27314815E-06
  1 27 51  1.27314815E-06
  1 27 52  1.27314815E-06
  1 27 53  1.27314815E-06
  1 27 54  1.27314815E-06
  1 27 55  1.27314815E-06
  1 27 56  1.27314815E-06
  1 27 57  1.27314815E-06
  1 27 58  1.27314815E-06
  1 27 59  1.27314815E-06
  1 27 60  1.27314815E-06
  1 28 14  1.27314815E-06
  1 28 15  1.27314815E-06
  1 28 16  1.27314815E-06
  1 28 17  1.27314815E-06
  1 28 18  1.27314815E-06
  1 28 19  1.27314815E-06
  1 28 20  1.27314815E-06
  1 28 22  1.27314815E-06
  1 28 23  1.27314815E-06
  1 28 24  1.27314815E-06
  1 28 25  1.27314815E-06
  1 28 36  1.27314815E-06
  1 28 37  1.27314815E-06
  1 28 38  1.27314815E-06
  1 28 39  1.27314815E-06
  1 28 40  1.27314815E-06
  1 28 41  1.27314815E-06
  1 28 42  1.27314815E-06
  1 28 43  1.27314815E-06
  1 28 44  1.27314815E-06
  1 28 45  1.27314815E-06
  1 28 46  1.27314815E-06
  1 28 47  1.27314815E-06
  1 28 48  1.27314815E-06
  1 28 49  1.27314815E-06
  1 28 50  1.27314815E-06
  1 28 51  1.27314815E-06
  1 28 52  1.27314815E-06
  1 28 53  1.27314815E-06
  1 28 54  1.27314815E-06
  1 28 55  1.27314815E-06
  1 28 56  1.27314815E-06
  1 28 57  1.27314815E-06
  1 28 58  1.27314815E-06
  1 28 59  1.27314815E-06
  1 28 60  1.27314815E-06
  1 28 61  1.27314815E-06
  1 29 12  1.27314815E-06
  1 29 13  1.27314815E-06
  1 29 14  1.27314815E-06
  1 29 15  1.27314815E-06
  1 29 16  1.27314815E-06
  1 29 17  1.27314815E-06
  1 29 18  1.27314815E-06
  1 29 19  1.27314815E-06
  1 29 20  1.27314815E-06
  1 29 22  1.27314815E-06
  1 29 23  1.27314815E-06
  1 29 24  1.27314815E-06
  1 29 25  1.27314815E-06
  1 29 26  1.27314815E-06
  1 29 27  1.27314815E-06
  1 29 28  1.27314815E-06
  1 29 29  1.27314815E-06
  1 29 30  1.27314815E-06
  1 29 37  1.27314815E-06
  1 29 38  1.27314815E-06
  1 29 39  1.27314815E-06
  1 29 40  1.27314815E-06
  1 29 41  1.27314815E-06
  1 29 42  1.27314815E-06
  1 29 43  1.27314815E-06
  1 29 44  1.27314815E-06
  1 29 45  1.27314815E-06
  1 29 46  1.27314815E-06
  1 29 47  1.27314815E-06
  1 29 48  1.27314815E-06
  1 29 49  1.27314815E-06
  1 29 50  1.27314815E-06
  1 29 51  1.27314815E-06
  1 29 52  1.27314815E-06
  1 29 53  1.27314815E-06
  1 29 54  1.27314815E-06
  1 29 55  1.27314815E-06
  1 29 56  1.27314815E-06
  1 29 57  1.27314815E-06
  1 29 58  1.27314815E-06
  1 29 59  1.27314815E-06
  1 29 60  1.27314815E-06
  1 29 61  1.27314815E-06
  1 29 62  1.27314815E-06
  1 29 63  1.27314815E-06
  1 29 64  1.27314815E-06
  1 29 65  1.27314815E-06
  1 29 66  1.27314815E-06
  1 30 12  1.27314815E-06
  1 30 13  1.27314815E-06
  1 30 14  1.27314815E-06
  1 30 15  1.27314815E-06
  1 30 17  1.27314815E-06
  1 30 18  1.27314815E-06
  1 30 19  1.27314815E-06
  1 30 20  1.27314815E-06
  1 30 24  1.27314815E-06
  1 30 25  1.27314815E-06
  1 30 26  1.27314815E-06
  1 30 27  1.27314815E-06
  1 30 28  1.27314815E-06
  1 30 29  1.27314815E-06
  1 30 30  1.27314815E-06
  1 30 37  1.27314815E-06
  1 30 38  1.27314815E-06
  1 30 39  1.27314815E-06
  1 30 40  1.27314815E-06
  1 30 41  1.27314815E-06
  1 30 42  1.27314815E-06
  1 30 43  1.27314815E-06
  1 30 44  1.27314815E-06
  1 30 45  1.27314815E-06
  1 30 46  1.27314815E-06
  1 30 47  1.27314815E-06
  1 30 48  1.27314815E-06
  1 30 49  1.27314815E-06
  1 30 50  1.27314815E-06
  1 30 51  1.27314815E-06
  1 30 52  1.27314815E-06
  1 30 53  1.27314815E-06
  1 30 54  1.27314815E-06
  1 30 55  1.27314815E-06
  1 30 56  1.27314815E-06
  1 30 57  1.27314815E-06
  1 30 58  1.27314815E-06
  1 30 59  1.27314815E-06
  1 30 60  1.27314815E-06
  1 30 61  1.27314815E-06
  1 30 62  1.27314815E-06
  1 30 63  1.27314815E-06
  1 30 64  1.27314815E-06
  1 30 65  1.27314815E-06
  1 30 66  1.27314815E-06
  1 30 67  1.27314815E-06
  1 31 11  1.27314815E-06
  1 31 12  1.27314815E-06
  1 31 13  1.27314815E-06
  1 31 14  1.27314815E-06
  1 31 15  1.27314815E-06
  1 31 18  1.27314815E-06
  1 31 19  1.27314815E-06
  1 31 20  1.27314815E-06
  1 31 24  1.27314815E-06
  1 31 25  1.27314815E-06
  1 31 26  1.27314815E-06
  1 31 27  1.27314815E-06
  1 31 28  1.27314815E-06
  1 31 29  1.27314815E-06
  1 31 30  1.27314815E-06
  1 31 31  1.27314815E-06
  1 31 37  1.27314815E-06
  1 31 38  1.27314815E-06
  1 31 39  1.27314815E-06
  1 31 40  1.27314815E-06
  1 31 41  1.27314815E-06
  1 31 42  1.27314815E-06
  1 31 43  1.27314815E-06
  1 31 44  1.27314815E-06
  1 31 45  1.27314815E-06
  1 31 46  1.27314815E-06
  1 31 47  1.27314815E-06
  1 31 48  1.27314815E-06
  1 31 49  1.27314815E-06
  1 31 50  1.27314815E-06
  1 31 51  1.27314815E-06
  1 31 52  1.27314815E-06
  1 31 53  1.27314815E-06
  1 31 54  1.27314815E-06
  1 31 55  1.27314815E-06
  1 31 56  1.27314815E-06
  1 31 57  1.27314815E-06
  1 31 58  1.27314815E-06
  1 31 59  1.27314815E-06
  1 31 60  1.27314815E-06
  1 31 61  1.27314815E-06
  1 31 62  1.27314815E-06
  1 31 63  1.27314815E-06
  1 31 64  1.27314815E-06
  1 31 65  1.27314815E-06
  1 31 66  1.27314815E-06
  1 31 67  1.27314815E-06
  1 32 11  1.27314815E-06
  1 32 12  1.27314815E-06
  1 32 13  1.27314815E-06
  1 32 14  1.27314815E-06
  1 32 15  1.27314815E-06
  1 32 16  1.27314815E-06
  1 32 18  1.27314815E-06
  1 32 19  1.27314815E-06
  1 32 20  1.27314815E-06
  1 32 21  1.27314815E-06
  1 32 24  1.27314815E-06
  1 32 25  1.27314815E-06
  1 32 26  1.27314815E-06
  1 32 27  1.27314815E-06
  1 32 28  1.27314815E-06
  1 32 29  1.27314815E-06
  1 32 30  1.27314815E-06
  1 32 31  1.27314815E-06
  1 32 32  1.27314815E-06
  1 32 37  1.27314815E-06
  1 32 38  1.27314815E-06
  1 32 39  1.27314815E-06
  1 32 40  1.27314815E-06
  1 32 41  1.27314815E-06
  1 32 42  1.27314815E-06
  1 32 43  1.27314815E-06
  1 32 44  1.27314815E-06
  1 32 45  1.27314815E-06
  1 32 46  1.27314815E-06
  1 32 47  1.27314815E-06
  1 32 48  1.27314815E-06
  1 32 49  1.27314815E-06
  1 32 50  1.27314815E-06
  1 32 51  1.27314815E-06
  1 32 52  1.27314815E-06
  1 32 53  1.27314815E-06
  1 32 54  1.27314815E-06
  1 32 55  1.27314815E-06
  1 32 56  1.27314815E-06
  1 32 57  1.27314815E-06
  1 32 58  1.27314815E-06
  1 32 59  1.27314815E-06
  1 32 60  1.27314815E-06
  1 32 61  1.27314815E-06
  1 32 62  1.27314815E-06
  1 32 63  1.27314815E-06
  1 32 64  1.27314815E-06
  1 32 65  1.27314815E-06
  1 32 66  1.27314815E-06
  1 32 67  1.27314815E-06
  1 32 68  1.27314815E-06
  1 33 11  1.27314815E-06
  1 33 12  1.27314815E-06
  1 33 13  1.27314815E-06
  1 33 14  1.27314815E-06
  1 33 15  1.27314815E-06
  1 33 16  1.27314815E-06
  1 33 17  1.27314815E-06
  1 33 18  1.27314815E-06
  1 33 19  1.27314815E-06
  1 33 20  1.27314815E-06
  1 33 24  1.27314815E-06
  1 33 25  1.27314815E-06
  1 33 26  1.27314815E-06
  1 33 27  1.27314815E-06
  1 33 28  1.27314815E-06
  1 33 29  1.27314815E-06
  1 33 30  1.27314815E-06
  1 33 31  1.27314815E-06
  1 33 32  1.27314815E-06
  1 33 37  1.27314815E-06
  1 33 38  1.27314815E-06
  1 33 39  1.27314815E-06
  1 33 40  1.27314815E-06
  1 33 41  1.27314815E-06
  1 33 42  1.27314815E-06
  1 33 43  1.27314815E-06
  1 33 44  1.27314815E-06
  1 33 45  1.27314815E-06
  1 33 46  1.27314815E-06
  1 33 47  1.27314815E-06
  1 33 48  1.27314815E-06
  1 33 49  1.27314815E-06
  1 33 50  1.27314815E-06
  1 33 51  1.27314815E-06
  1 33 52  1.27314815E-06
  1 33 53  1.27314815E-06
  1 33 54  1.27314815E-06
  1 33 55  1.27314815E-06
  1 33 56  1.27314815E-06
  1 33 57  1.27314815E-06
  1 33 58  1.27314815E-06
  1 33 59  1.27314815E-06
  1 33 60  1.27314815E-06
  1 33 61  1.27314815E-06
  1 33 62  1.27314815E-06
  1 33 63  1.27314815E-06
  1 33 64  1.27314815E-06
  1 33 65  1.27314815E-06
  1 33 66  1.27314815E-06
  1 33 67  1.27314815E-06
  1 33 68  1.27314815E-06
  1 33 69  1.27314815E-06
  1 34 11  1.27314815E-06
  1 34 12  1.27314815E-06
  1 34 13  1.27314815E-06
  1 34 14  1.27314815E-06
  1 34 15  1.27314815E-06
  1 34 16  1.27314815E-06
  1 34 17  1.27314815E-06
  1 34 18  1.27314815E-06
  1 34 19  1.27314815E-06
  1 34 20  1.27314815E-06
  1 34 23  1.27314815E-06
  1 34 24  1.27314815E-06
  1 34 25  1.27314815E-06
  1 34 26  1.27314815E-06
  1 34 27  1.27314815E-06
  1 34 28  1.27314815E-06
  1 34 29  1.27314815E-06
  1 34 30  1.27314815E-06
  1 34 31  1.27314815E-06
  1 34 39  1.27314815E-06
  1 34 40  1.27314815E-06
  1 34 41  1.27314815E-06
  1 34 42  1.27314815E-06
  1 34 43  1.27314815E-06
  1 34 44  1.27314815E-06
  1 34 45  1.27314815E-06
  1 34 46  1.27314815E-06
  1 34 47  1.27314815E-06
  1 34 48  1.27314815E-06
  1 34 49  1.27314815E-06
  1 34 50  1.27314815E-06
  1 34 51  1.27314815E-06
  1 34 52  1.27314815E-06
  1 34 53  1.27314815E-06
  1 34 54  1.27314815E-06
  1 34 55  1.27314815E-06
  1 34 56  1.27314815E-06
  1 34 57  1.27314815E-06
  1 34 58  1.27314815E-06
  1 34 59  1.27314815E-06
  1 34 60  1.27314815E-06
  1 34 61  1.27314815E-06
  1 34 62  1.27314815E-06
  1 34 63  1.27314815E-06
  1 34 64  1.27314815E-06
  1 34 65  1.27314815E-06
  1 34 66  1.27314815E-06
  1 34 67  1.27314815E-06
  1 34 68  1.27314815E-06
  1 34 69  1.27314815E-06
  1 34 70  1.27314815E-06
  1 35 12  1.27314815E-06
  1 35 13  1.27314815E-06
  1 35 14  1.27314815E-06
  1 35 15  1.27314815E-06
  1 35 16  1.27314815E-06
  1 35 17  1.27314815E-06
  1 35 18  1.27314815E-06
  1 35 19  1.27314815E-06
  1 35 20  1.27314815E-06
  1 35 23  1.27314815E-06
  1 35 24  1.27314815E-06
  1 35 25  1.27314815E-06
  1 35 26  1.27314815E-06
  1 35 27  1.27314815E-06
  1 35 28  1.27314815E-06
  1 35 29  1.27314815E-06
  1 35 30  1.27314815E-06
  1 35 31  1.27314815E-06
  1 35 32  1.27314815E-06
  1 35 39  1.27314815E-06
  1 35 40  1.27314815E-06
  1 35 41  1.27314815E-06
  1 35 42  1.27314815E-06
  1 35 43  1.27314815E-06
  1 35 44  1.27314815E-06
  1 35 45  1.27314815E-06
  1 35 46  1.27314815E-06
  1 35 47  1.27314815E-06
  1 35 48  1.27314815E-06
  1 35 49  1.27314815E-06
  1 35 50  1.27314815E-06
  1 35 51  1.27314815E-06
  1 35 52  1.27314815E-06
  1 35 53  1.27314815E-06
  1 35 54  1.27314815E-06
  1 35 55  1.27314815E-06
  1 35 56  1.27314815E-06
  1 35 57  1.27314815E-06
  1 35 58  1.27314815E-06
  1 35 59  1.27314815E-06
  1 35 60  1.27314815E-06
  1 35 61  1.27314815E-06
  1 35 62  1.27314815E-06
  1 35 63  1.27314815E-06
  1 35 64  1.27314815E-06
  1 35 65  1.27314815E-06
  1 35 66  1.27314815E-06
  1 35 67  1.27314815E-06
  1 35 68  1.27314815E-06
  1 35 69  1.27314815E-06
  1 35 70  1.27314815E-06
  1 35 71  1.27314815E-06
  1 36 12  1.27314815E-06
  1 36 13  1.27314815E-06
  1 36 14  1.27314815E-06
  1 36 15  1.27314815E-06
  1 36 16  1.27314815E-06
  1 36 17  1.27314815E-06
  1 36 18  1.27314815E-06
  1 36 22  1.27314815E-06
  1 36 23  1.27314815E-06
  1 36 24  1.27314815E-06
  1 36 25  1.27314815E-06
  1 36 26  1.27314815E-06
  1 36 27  1.27314815E-06
  1 36 28  1.27314815E-06
  1 36 29  1.27314815E-06
  1 36 30  1.27314815E-06
  1 36 31  1.27314815E-06
  1 36 32  1.27314815E-06
  1 36 33  1.27314815E-06
  1 36 39  1.27314815E-06
  1 36 40  1.27314815E-06
  1 36 41  1.27314815E-06
  1 36 42  1.27314815E-06
  1 36 43  1.27314815E-06
  1 36 44  1.27314815E-06
  1 36 45  1.27314815E-06
  1 36 46  1.27314815E-06
  1 36 47  1.27314815E-06
  1 36 48  1.27314815E-06
  1 36 49  1.27314815E-06
  1 36 50  1.27314815E-06
  1 36 51  1.27314815E-06
  1 36 52  1.27314815E-06
  1 36 53  1.27314815E-06
  1 36 54  1.27314815E-06
  1 36 55  1.27314815E-06
  1 36 56  1.27314815E-06
  1 36 57  1.27314815E-06
  1 36 58  1.27314815E-06
  1 36 59  1.27314815E-06
  1 36 60  1.27314815E-06
  1 36 61  1.27314815E-06
  1 36 62  1.27314815E-06
  1 36 63  1.27314815E-06
  1 36 64  1.27314815E-06
  1 36 65  1.27314815E-06
  1 36 66  1.27314815E-06
  1 36 67  1.27314815E-06
  1 36 68  1.27314815E-06
  1 36 69  1.27314815E-06
  1 36 70  1.27314815E-06
  1 36 71  1.27314815E-06
  1 37 11  1.27314815E-06
  1 37 12  1.27314815E-06
  1 37 13  1.27314815E-06
  1 37 14  1.27314815E-06
  1 37 15  1.27314815E-06
  1 37 16  1.27314815E-06
  1 37 17  1.27314815E-06
  1 37 21  1.27314815E-06
  1 37 22  1.27314815E-06
  1 37 23  1.27314815E-06
  1 37 24  1.27314815E-06
  1 37 25  1.27314815E-06
  1 37 26  1.27314815E-06
  1 37 27  1.27314815E-06
  1 37 28  1.27314815E-06
  1 37 29  1.27314815E-06
  1 37 30  1.27314815E-06
  1 37 31  1.27314815E-06
  1 37 32  1.27314815E-06
  1 37 33  1.27314815E-06
  1 37 40  1.27314815E-06
  1 37 41  1.27314815E-06
  1 37 44  1.27314815E-06
  1 37 45  1.27314815E-06
  1 37 46  1.27314815E-06
  1 37 47  1.27314815E-06
  1 37 48  1.27314815E-06
  1 37 49  1.27314815E-06
  1 37 50  1.27314815E-06
  1 37 51  1.27314815E-06
  1 37 52  1.27314815E-06
  1 37 53  1.27314815E-06
  1 37 54  1.27314815E-06
  1 37 55  1.27314815E-06
  1 37 56  1.27314815E-06
  1 37 57  1.27314815E-06
  1 37 58  1.27314815E-06
  1 37 59  1.27314815E-06
  1 37 60  1.27314815E-06
  1 37 61  1.27314815E-06
  1 37 62  1.27314815E-06
  1 37 63  1.27314815E-06
  1 37 64  1.27314815E-06
  1 37 65  1.27314815E-06
  1 37 66  1.27314815E-06
  1 37 67  1.27314815E-06
  1 37 68  1.27314815E-06
  1 37 69  1.27314815E-06
  1 37 70  1.27314815E-06
  1 37 71  1.27314815E-06
  1 38 10  1.27314815E-06
  1 38 11  1.27314815E-06
  1 38 12  1.27314815E-06
  1 38 13  1.27314815E-06
  1 38 14  1.27314815E-06
  1 38 15  1.27314815E-06
  1 38 16  1.27314815E-06
  1 38 17  1.27314815E-06
  1 38 18  1.27314815E-06
  1 38 19  1.27314815E-06
  1 38 20  1.27314815E-06
  1 38 21  1.27314815E-06
  1 38 22  1.27314815E-06
  1 38 23  1.27314815E-06
  1 38 25  1.27314815E-06
  1 38 26  1.27314815E-06
  1 38 27  1.27314815E-06
  1 38 28  1.27314815E-06
  1 38 29  1.27314815E-06
  1 38 30  1.27314815E-06
  1 38 31  1.27314815E-06
  1 38 33  1.27314815E-06
  1 38 34  1.27314815E-06
  1 38 40  1.27314815E-06
  1 38 41  1.27314815E-06
  1 38 42  1.27314815E-06
  1 38 43  1.27314815E-06
  1 38 44  1.27314815E-06
  1 38 45  1.27314815E-06
  1 38 46  1.27314815E-06
  1 38 47  1.27314815E-06
  1 38 48  1.27314815E-06
  1 38 49  1.27314815E-06
  1 38 50  1.27314815E-06
  1 38 51  1.27314815E-06
  1 38 52  1.27314815E-06
  1 38 53  1.27314815E-06
  1 38 54  1.27314815E-06
  1 38 55  1.27314815E-06
  1 38 56  1.27314815E-06
  1 38 57  1.27314815E-06
  1 38 58  1.27314815E-06
  1 38 59  1.27314815E-06
  1 38 60  1.27314815E-06
  1 38 61  1.27314815E-06
  1 38 62  1.27314815E-06
  1 38 63  1.27314815E-06
  1 38 64  1.27314815E-06
  1 38 65  1.27314815E-06
  1 38 66  1.27314815E-06
  1 38 67  1.27314815E-06
  1 38 68  1.27314815E-06
  1 38 69  1.27314815E-06
  1 38 70  1.27314815E-06
  1 38 71  1.27314815E-06
  1 39 8  1.27314815E-06
  1 39 9  1.27314815E-06
  1 39 10  1.27314815E-06
  1 39 11  1.27314815E-06
  1 39 12  1.27314815E-06
  1 39 13  1.27314815E-06
  1 39 14  1.27314815E-06
  1 39 15  1.27314815E-06
  1 39 16  1.27314815E-06
  1 39 17  1.27314815E-06
  1 39 18  1.27314815E-06
  1 39 19  1.27314815E-06
  1 39 20  1.27314815E-06
  1 39 21  1.27314815E-06
  1 39 22  1.27314815E-06
  1 39 23  1.27314815E-06
  1 39 25  1.27314815E-06
  1 39 26  1.27314815E-06
  1 39 27  1.27314815E-06
  1 39 28  1.27314815E-06
  1 39 29  1.27314815E-06
  1 39 30  1.27314815E-06
  1 39 31  1.27314815E-06
  1 39 33  1.27314815E-06
  1 39 34  1.27314815E-06
  1 39 35  1.27314815E-06
  1 39 37  1.27314815E-06
  1 39 38  1.27314815E-06
  1 39 40  1.27314815E-06
  1 39 41  1.27314815E-06
  1 39 42  1.27314815E-06
  1 39 43  1.27314815E-06
  1 39 44  1.27314815E-06
  1 39 45  1.27314815E-06
  1 39 46  1.27314815E-06
  1 39 47  1.27314815E-06
  1 39 48  1.27314815E-06
  1 39 49  1.27314815E-06
  1 39 50  1.27314815E-06
  1 39 51  1.27314815E-06
  1 39 52  1.27314815E-06
  1 39 53  1.27314815E-06
  1 39 54  1.27314815E-06
  1 39 55  1.27314815E-06
  1 39 56  1.27314815E-06
  1 39 57  1.27314815E-06
  1 39 58  1.27314815E-06
  1 39 59  1.27314815E-06
  1 39 60  1.27314815E-06
  1 39 61  1.27314815E-06
  1 39 62  1.27314815E-06
  1 39 63  1.27314815E-06
  1 39 64  1.27314815E-06
  1 39 65  1.27314815E-06
  1 39 66  1.27314815E-06
  1 39 67  1.27314815E-06
  1 39 68  1.27314815E-06
  1 39 69  1.27314815E-06
  1 39 70  1.27314815E-06
  1 40 5  1.27314815E-06
  1 40 6  1.27314815E-06
  1 40 7  1.27314815E-06
  1 40 8  1.27314815E-06
  1 40 9  1.27314815E-06
  1 40 10  1.27314815E-06
  1 40 11  1.27314815E-06
  1 40 12  1.27314815E-06
  1 40 13  1.27314815E-06
  1 40 14  1.27314815E-06
  1 40 15  1.27314815E-06
  1 40 16  1.27314815E-06
  1 40 17  1.27314815E-06
  1 40 18  1.27314815E-06
  1 40 19  1.27314815E-06
  1 40 20  1.27314815E-06
  1 40 21  1.27314815E-06
  1 40 26  1.27314815E-06
  1 40 27  1.27314815E-06
  1 40 28  1.27314815E-06
  1 40 29  1.27314815E-06
  1 40 30  1.27314815E-06
  1 40 31  1.27314815E-06
  1 40 32  1.27314815E-06
  1 40 37  1.27314815E-06
  1 40 38  1.27314815E-06
  1 40 39  1.27314815E-06
  1 40 41  1.27314815E-06
  1 40 42  1.27314815E-06
  1 40 43  1.27314815E-06
  1 40 44  1.27314815E-06
  1 40 45  1.27314815E-06
  1 40 46  1.27314815E-06
  1 40 47  1.27314815E-06
  1 40 48  1.27314815E-06
  1 40 49  1.27314815E-06
  1 40 50  1.27314815E-06
  1 40 51  1.27314815E-06
  1 40 52  1.27314815E-06
  1 40 53  1.27314815E-06
  1 40 54  1.27314815E-06
  1 40 55  1.27314815E-06
  1 40 56  1.27314815E-06
  1 40 57  1.27314815E-06
  1 40 58  1.27314815E-06
  1 40 59  1.27314815E-06
  1 40 60  1.27314815E-06
  1 40 61  1.27314815E-06
  1 40 62  1.27314815E-06
  1 40 63  1.27314815E-06
  1 40 64  1.27314815E-06
  1 40 65  1.27314815E-06
  1 40 66  1.27314815E-06
  1 40 67  1.27314815E-06
  1 40 68  1.27314815E-06
  1 40 69  1.27314815E-06
  1 40 70  1.27314815E-06
  1 41 4  1.27314815E-06
  1 41 5  1.27314815E-06
  1 41 6  1.27314815E-06
  1 41 7  1.27314815E-06
  1 41 8  1.27314815E-06
  1 41 9  1.27314815E-06
  1 41 10  1.27314815E-06
  1 41 11  1.27314815E-06
  1 41 12  1.27314815E-06
  1 41 13  1.27314815E-06
  1 41 14  1.27314815E-06
  1 41 15  1.27314815E-06
  1 41 16  1.27314815E-06
  1 41 17  1.27314815E-06
  1 41 18  1.27314815E-06
  1 41 19  1.27314815E-06
  1 41 20  1.27314815E-06
  1 41 21  1.27314815E-06
  1 41 23  1.27314815E-06
  1 41 24  1.27314815E-06
  1 41 25  1.27314815E-06
  1 41 27  1.27314815E-06
  1 41 28  1.27314815E-06
  1 41 29  1.27314815E-06
  1 41 30  1.27314815E-06
  1 41 31  1.27314815E-06
  1 41 32  1.27314815E-06
  1 41 33  1.27314815E-06
  1 41 34  1.27314815E-06
  1 41 35  1.27314815E-06
  1 41 37  1.27314815E-06
  1 41 38  1.27314815E-06
  1 41 39  1.27314815E-06
  1 41 40  1.27314815E-06
  1 41 41  1.27314815E-06
  1 41 42  1.27314815E-06
  1 41 43  1.27314815E-06
  1 41 44  1.27314815E-06
  1 41 45  1.27314815E-06
  1 41 46  1.27314815E-06
  1 41 47  1.27314815E-06
  1 41 48  1.27314815E-06
  1 41 49  1.27314815E-06
  1 41 50  1.27314815E-06
  1 41 51  1.27314815E-06
  1 41 52  1.27314815E-06
  1 41 53  1.27314815E-06
  1 41 54  1.27314815E-06
  1 41 55  1.27314815E-06
  1 41 56  1.27314815E-06
  1 41 57  1.27314815E-06