# File generated by Flopy version 3.3.4 on 11/27/2021 at 23:24:33.
BEGIN options
  PRINT_INPUT
  PRINT_FLOWS
  SAVE_FLOWS
END options

BEGIN dimensions
  MAXBOUND  638
END dimensions

BEGIN period  1
  1 16 22     703.38043213       0.06400000
  1 51 7     669.41845703       0.06075000
  1 49 37     755.90301514       0.00337500
  1 43 12     707.99249268       0.00800000
  1 12 15     649.26074219       0.06400000
  1 53 16     794.94061279       0.06400000
  1 22 47     699.06005859       0.00800000
  1 53 25     847.81207275       0.06400000
  1 26 26     769.17016602       0.04050000
  1 35 4     639.00000000       0.00800000
  1 53 52     818.28894043       0.00800000
  1 54 17     810.95117188       0.06400000
  1 46 13     741.04211426       0.00800000
  1 38 9     735.00000000       0.00800000
  1 21 87     730.43798828       0.00800000
  1 15 16     673.00000000       0.06400000
  1 23 29     720.14886475       0.06075000
  1 21 96     729.02331543       0.00800000
  1 33 61     770.56835938       0.00100000
  1 32 105     715.47625732       0.00800000
  1 24 101     764.41693115       0.04050000
  1 36 66     781.56628418       0.00100000
  1 16 17     703.30633545       0.06400000
  1 16 26     679.92205811       0.06400000
  1 27 26     771.73052979       0.02700000
  1 25 102     745.14270020       0.05766504
  1 19 31     659.00000000       0.02700000
  1 37 67     782.31878662       0.00100000
  1 49 41     759.45117188       0.00337500
  1 41 37     749.00000000       0.00100000
  1 50 104     800.19042969       0.04050000
  1 39 104     763.49804688       0.00800000
  1 18 81     657.45245361       0.00800000
  1 53 11     734.34216309       0.06400000
  1 28 103     739.17620850       0.01800000
  1 53 47     820.93609619       0.00800000
  1 54 12     736.85113525       0.06400000
  1 20 99     694.78192139       0.01800000
  1 23 6     619.00000000       0.06400000
  1 38 4     639.00000000       0.00800000
  1 52 51     805.53228760       0.00800000
  1 57 17     789.00000000       0.06400000
  1 38 13     711.06988525       0.00800000
  1 46 26     803.69323730       0.00800000
  1 35 26     785.15368652       0.00800000
  1 21 91     725.89642334       0.00800000
  1 33 56     767.65179443       0.00100000
  1 40 104     763.31610107       0.00800000
  1 21 100     734.60150146       0.02700000
  1 33 65     776.20013428       0.00100000
  1 24 105     674.87652588       0.06400000
  1 49 36     754.22558594       0.00337500
  1 53 15     784.26916504       0.06400000
  1 22 46     690.94934082       0.00800000
  1 45 11     691.35369873       0.00800000
  1 26 7     651.55816650       0.04050000
  1 34 38     745.26989746       0.00100000
  1 46 12     709.62664795       0.00800000
  1 52 46     823.00000000       0.00800000
  1 24 73     757.75378418       0.00800000
  1 57 21     917.53503418       0.06400000
  1 21 86     729.44317627       0.00800000
  1 33 51     766.49407959       0.00100000
  1 21 95     727.67895508       0.00800000
  1 33 60     769.48278809       0.00100000
  1 15 24     681.56726074       0.06400000
  1 24 100     783.51763916       0.02700000
  1 18 26     702.43432617       0.06400000
  1 29 26     779.76275635       0.01200000
  1 37 39     744.15502930       0.00100000
  1 48 39     760.33203125       0.00225000
  1 18 35     647.65911865       0.00800000
  1 29 35     733.00000000       0.00150000
  1 41 9     711.31494141       0.00800000
  1 49 40     753.89648438       0.00337500
  1 51 59     806.35253906       0.00759375
  1 41 36     749.00000000       0.00100000
  1 30 36     733.00000000       0.00100000
  1 30 45     749.39666748       0.00100000
  1 53 10     711.03363037       0.06400000
  1 34 15     733.00000000       0.00800000
  1 11 13     623.72186279       0.06400000
  1 26 11     709.63024902       0.04050000
  1 28 102     769.11480713       0.01708594
  1 32 63     772.94970703       0.00100000
  1 44 37     749.00000000       0.00100000
  1 33 37     738.42645264       0.00100000
  1 24 68     733.29571533       0.00800000
  1 52 50     811.35284424       0.00800000
  1 25 33     722.41693115       0.01139063
  1 4 10     631.00000000       0.06400000
  1 24 77     771.90325928       0.00800000
  1 25 42     735.00054932       0.00759375
  1 21 90     727.25756836       0.00800000
  1 33 55     767.14337158       0.00100000
  1 33 64     776.20013428       0.00100000
  1 27 2     627.00000000       0.02700000
  1 54 105     933.34600830       0.06400000
  1 18 30     656.80895996       0.04050000
  1 49 8     666.68023682       0.02700000
  1 41 4     649.36273193       0.00800000
  1 47 84     817.00000000       0.00150000
  1 41 13     719.68682861       0.00800000
  1 49 26     808.11346436       0.02700000
  1 49 35     756.94561768       0.00337500
  1 51 63     806.88726807       0.00759375
  1 42 5     648.57409668       0.00800000
  1 27 105     701.29681396       0.02700000
  1 19 101     659.00000000       0.04050000
  1 53 14     762.78448486       0.06400000
  1 21 40     678.99066162       0.00800000
  1 52 18     863.59350586       0.06400000
  1 32 49     767.00000000       0.00100000
  1 20 93     711.29980469       0.00800000
  1 20 102     671.54840088       0.06075000
  1 14 28     643.96905518       0.06400000
  1 24 72     752.04449463       0.00800000
  1 25 37     720.72045898       0.00759375
  1 33 50     764.93475342       0.00100000
  1 17 33     648.58990479       0.01200000
  1 56 15     776.96826172       0.06400000
  1 45 104     764.61840820       0.00800000
  1 48 11     701.47277832       0.01800000
  1 33 59     769.48278809       0.00100000
  1 29 16     746.09082031       0.01200000
  1 10 12     620.54748535       0.06400000
  1 23 94     771.72253418       0.00800000
  1 48 38     753.71850586       0.00225000
  1 23 103     692.99749756       0.06400000
  1 18 34     647.65911865       0.00800000
  1 35 105     734.32373047       0.00800000
  1 39 66     784.12213135       0.00100000
  1 49 12     727.46929932       0.02700000
  1 29 43     760.38507080       0.00150000
  1 51 49     803.83819580       0.00759375
  1 30 26     781.49554443       0.00800000
  1 41 26     792.94000244       0.00800000
  1 51 58     804.37713623       0.00759375
  1 22 31     707.25512695       0.02700000
  1 45 5     645.24560547       0.00800000
  1 26 1     619.00000000       0.04050000
  1 11 12     621.00000000       0.06400000
  1 52 13     754.21813965       0.06400000
  1 20 79     715.00000000       0.00800000
  1 40 66     787.65557861       0.00100000
  1 24 49     704.34503174       0.00800000
  1 14 14     640.95196533       0.06400000
  1 32 62     771.74157715       0.00100000
  1 14 23     657.22192383       0.06400000
  1 52 49     811.35284424       0.00800000
  1 25 32     735.54046631       0.01708594
  1 24 67     736.44769287       0.00800000
  1 53 103     881.33374023       0.06400000
  1 24 76     770.79833984       0.00800000
  1 25 41     728.41656494       0.00759375
  1 48 6     651.82196045       0.01800000
  1 56 19     900.61151123       0.06400000
  1 46 82     811.00000000       0.00100000
  1 54 104     901.19000244       0.06400000
  1 50 52     788.57257080       0.00506250
  1 49 7     659.00000000       0.02700000
  1 30 3     633.90234375       0.00800000
  1 38 105     737.59405518       0.00800000
  1 41 12     698.41064453       0.00800000
  1 31 47     754.37347412       0.00100000
  1 55 14     748.07196045       0.06400000
  1 51 62     808.86315918       0.00759375
  1 19 100     657.11877441       0.02700000
  1 21 30     689.80157471       0.04050000
  1 24 26     752.37005615       0.06400000
  1 21 39     678.99066162       0.00800000
  1 33 4     639.02770996       0.00800000
  1 32 48     765.73565674       0.00100000
  1 24 44     712.53228760       0.00800000
  1 25 9     693.88171387       0.06075000
  1 24 53     706.05627441       0.00800000
  1 14 18     700.67211914       0.06400000
  1 25 18     749.46124268       0.06075000
  1 17 14     649.14404297       0.06400000
  1 14 27     643.87188721       0.06400000
  1 25 36     721.79803467       0.00759375
  1 17 32     645.83898926       0.01800000
  1 56 14     777.53253174       0.06400000
  1 48 10     681.00000000       0.01800000
  1 18 15     659.42871094       0.06400000
  1 50 47     784.15454102       0.00506250
  1 23 93     772.31323242       0.00800000
  1 50 56     793.95959473       0.00506250
  1 46 104     764.32189941       0.00800000
  1 23 102     727.91534424       0.06075000
  1 51 30     808.32879639       0.03844336
  1 43 26     798.47546387       0.00800000
  1 28 37     734.71295166       0.00225000
  1 20 33     665.00000000       0.01200000
  1 51 48     803.13690186       0.00759375
  1 51 57     804.08880615       0.00759375
  1 21 16     673.14239502       0.06400000
  1 55 18     841.51574707       0.06400000
  1 40 38     748.85009766       0.00100000
  1 52 12     715.63421631       0.06400000
  1 21 43     684.06927490       0.00800000
  1 36 4     639.00000000       0.00800000
  1 24 48     705.00000000       0.00800000
  1 52 30     820.50347900       0.04050000
  1 14 13     639.92980957       0.06400000
  1 44 26     801.51202393       0.00800000
  1 33 26     785.00000000       0.00800000
  1 53 102     906.05908203       0.06075000
  1 23 61     717.28698730       0.00800000
  1 47 37     750.23748779       0.00150000
  1 26 103     718.07489014       0.04050000
  1 37 14     723.00000000       0.00800000
  1 50 33     772.08843994       0.00759375
  1 46 81     809.00000000       0.00100000
  1 59 20     869.36901855       0.06400000
  1 50 51     791.00000000       0.00506250
  1 51 25     823.21289062       0.06075000
  1 28 41     751.65740967       0.00225000
  1 20 37     666.09246826       0.00800000
  1 31 37     737.32891846       0.00100000
  1 19 81     660.43737793       0.00800000
  1 31 46     752.49255371       0.00100000
  1 55 13     757.80743408       0.06400000
  1 24 7     631.65747070       0.06400000
  1 13 16     654.73236084       0.06400000
  1 22 83     757.47424316       0.00800000
  1 21 38     678.92248535       0.00800000
  1 22 92     761.55993652       0.00800000
  1 33 3     637.10583496       0.00800000
  1 30 105     711.00000000       0.00800000
  1 22 101     747.74865723       0.04050000
  1 34 66     778.02197266       0.00100000
  1 44 12     715.78247070       0.00800000
  1 24 43     717.66021729       0.00800000
  1 14 17     681.00000000       0.06400000
  1 25 17     735.60949707       0.06075000
  1 25 26     757.16412354       0.06075000
  1 36 26     786.18890381       0.00800000
  1 23 56     709.00000000       0.00800000
  1 23 65     730.17169189       0.00800000
  1 23 74     768.62677002       0.00800000
  1 27 35     730.93890381       0.00337500
  1 50 46     775.63281250       0.00506250
  1 50 55     791.77490234       0.00506250
  1 21 6     617.53771973       0.06400000
  1 32 15     743.00000000       0.00800000
  1 49 104     780.26574707       0.02700000
  1 24 29     736.22882080       0.06075000
  1 42 65     790.44134521       0.00100000
  1 13 29     639.00000000       0.06075000
  1 52 11     705.51257324       0.06400000
  1 47 9     704.08593750       0.01200000
  1 23 51     698.89477539       0.00800000
  1 58 18     827.22595215       0.06400000
  1 23 60     717.00000000       0.00800000
  1 16 21     738.65734863       0.06400000
  1 38 67     785.08117676       0.00100000
  1 50 32     778.71990967       0.01139063
  1 19 26     710.23535156       0.06400000
  1 19 35     656.23986816       0.00800000
  1 59 19     852.93566895       0.06400000
  1 50 50     790.40301514       0.00506250
  1 51 15     806.07855225       0.06075000
  1 43 11     686.77923584       0.00800000
  1 20 18     707.61944580       0.06400000
  1 12 14     633.24389648       0.06400000
  1 28 40     745.16491699       0.00225000
  1 20 36     665.00000000       0.00800000
  1 31 36     734.13610840       0.00100000
  1 31 45     753.07165527       0.00100000
  1 55 12     758.59802246       0.06400000
  1 24 6     625.29620361       0.06400000
  1 13 15     649.00000000       0.06400000
  1 54 16     782.97991943       0.06400000
  1 13 24     633.00000000       0.06400000
  1 54 25     859.06884766       0.06400000
  1 22 91     758.96343994       0.00800000
  1 41 104     763.62463379       0.00800000
  1 22 100     757.38909912       0.02700000
  1 25 7     643.61999512       0.06075000
  1 38 26     787.22412109       0.00800000
  1 35 39     745.46820068       0.00100000
  1 39 9     728.65063477       0.00800000
  1 23 55     709.22875977       0.00800000
  1 23 64     730.17169189       0.00800000
  1 23 73     766.85357666       0.00800000
  1 33 105     721.60308838       0.00800000
  1 27 34     730.93890381       0.00337500
  1 19 30     672.29882812       0.04050000
  1 50 45     770.50885010       0.00506250
  1 51 10     710.95550537       0.06075000
  1 28 26     777.00000000       0.01800000
  1 40 9     719.64141846       0.00800000
  1 51 104     819.44531250       0.06075000
  1 53 46     821.75915527       0.00800000
  1 54 11     728.97320557       0.06400000
  1 22 86     758.74334717       0.00800000
  1 57 16     795.95648193       0.06400000
  1 42 64     790.44134521       0.00100000
  1 21 99     730.33374023       0.01800000
  1 15 28     654.62463379       0.06400000
  1 47 8     678.13940430       0.01200000
  1 38 39     745.11083984       0.00100000
  1 39 4     639.65594482       0.00800000
  1 23 50     693.00000000       0.00800000
  1 24 104     687.70495605       0.06400000
  1 39 13     708.87530518       0.00800000
  1 23 59     717.00000000       0.00800000
  1 47 26     804.54937744       0.01200000
  1 27 20     781.97918701       0.02700000
  1 52 104     842.20202637       0.06400000
  1 19 16     678.48986816       0.06400000
  1 28 3     633.00000000       0.01800000
  1 36 105     734.49365234       0.00800000
  1 19 34     656.23986816       0.00800000
  1 25 105     691.22967529       0.06075000
  1 20 17     694.16864014       0.06400000
  1 12 13     631.00000000       0.06400000
  1 20 26     711.34399414       0.06400000
  1 22 45     689.00000000       0.00800000
  1 31 26     783.89813232       0.00800000
  1 29 102     773.47271729       0.01139063
  1 45 37     749.00000000       0.00100000
  1 34 37     739.23828125       0.00100000
  1 43 104     764.33825684       0.00800000
  1 26 33     731.33984375       0.00759375
  1 54 15     791.98510742       0.06400000
  1 5 10     609.00000000       0.06400000
  1 46 11     695.35998535       0.00800000
  1 57 20     864.20074463       0.06400000
  1 15 14     642.47943115       0.06400000
  1 21 94     727.67895508       0.00800000
  1 15 23     691.00000000       0.06400000
  1 35 38     743.00000000       0.00100000
  1 55 105     957.99249268       0.06400000
  1 24 99     792.67156982       0.01800000
  1 47 12     705.95996094       0.01200000
  1 23 54     709.22875977       0.00800000
  1 50 26     819.32537842       0.04050000
  1 44 104     764.53393555       0.00800000
  1 27 33     726.57659912       0.00506250
  1 19 29     678.23040771       0.06075000
  1 43 5     648.66381836       0.00800000
  1 31 3     635.38867188       0.00800000
  1 30 44     749.39666748       0.00100000
  1 42 9     711.31494141       0.00800000
  1 53 18     825.80682373       0.06400000
  1 22 49     703.00000000       0.00800000
  1 42 36     749.00000000       0.00100000
  1 53 45     822.45935059       0.00800000
  1 46 6     647.70526123       0.00800000
  1 35 15     739.55291748       0.00800000
  1 21 89     727.25756836       0.00800000
  1 33 54     767.14337158       0.00100000
  1 15 18     704.46313477       0.06400000
  1 21 98     731.10327148       0.01200000
  1 15 27     656.54290771       0.06400000
  1 27 1     623.00000000       0.02700000
  1 50 12     730.68554688       0.04050000
  1 16 19     722.76043701       0.06400000
  1 27 19     767.44042969       0.02700000
  1 19 15     659.00000000       0.06400000
  1 28 2     627.00000000       0.01800000
  1 49 34     756.94561768       0.00337500
  1 49 43     777.12805176       0.00337500
  1 22 26     735.00000000       0.06400000
  1 53 13     743.38311768       0.06400000
  1 22 44     689.00000000       0.00800000
  1 45 9     707.73052979       0.00800000
  1 20 92     706.44848633       0.00800000
  1 28 105     708.19696045       0.01800000
  1 20 101     685.95178223       0.04050000
  1 26 32     729.15472412       0.01139063
  1 54 14     780.93902588       0.06400000
  1 24 71     750.77850342       0.00800000
  1 23 17     712.17114258       0.06400000
  1 57 19     843.93457031       0.06400000
  1 33 49     764.93475342       0.00100000
  1 23 26     739.48419189       0.06400000
  1 21 93     729.00000000       0.00800000
  1 33 58     768.91644287       0.00100000
  1 15 22     691.63964844       0.06400000
  1 21 102     701.79876709       0.06075000
  1 16 14     645.18420410       0.06400000
  1 18 33     647.53894043       0.01200000
  1 49 11     700.51708984       0.02700000
  1 29 42     749.51013184       0.00150000
  1 30 16     745.67974854       0.00800000
  1 49 38     756.27575684       0.00337500
  1 22 30     707.04791260       0.04050000
  1 30 43     746.09698486       0.00100000
  1 34 4     639.00000000       0.00800000
  1 53 17     799.01818848       0.06400000
  1 22 48     703.00000000       0.00800000
  1 42 26     792.94000244       0.00800000
  1 26 9     677.00854492       0.04050000
  1 26 18     753.29156494       0.04050000
  1 32 61     771.00000000       0.00100000
  1 46 5     649.80090332       0.00800000
  1 31 105     715.47625732       0.00800000
  1 52 48     819.10418701       0.00800000
  1 38 10     727.56085205       0.00800000
  1 24 75     770.22119141       0.00800000
  1 25 40     725.38647461       0.00759375
  1 21 88     730.91888428       0.00800000
  1 33 53     765.55157471       0.00100000
  1 15 17     689.08532715       0.06400000
  1 21 97     730.78497314       0.00800000
  1 24 102     740.65863037       0.06075000
  1 36 67     782.31878662       0.00100000
  1 23 106     678.78497314       0.06400000
  1 22 16     681.00000000       0.06400000
  1 51 61     807.65466309       0.00759375
  1 39 105     746.00109863       0.00800000
  1 27 103     723.40075684       0.02700000
  1 42 12     698.41064453       0.00800000
  1 53 12     751.17413330       0.06400000
  1 22 43     690.21624756       0.00800000
  1 32 47     754.37347412       0.00100000
  1 45 26     802.78704834       0.00800000
  1 52 25     838.64294434       0.06400000
  1 24 52     703.86987305       0.00800000
  1 20 100     690.18963623       0.02700000
  1 52 52     806.81091309       0.00800000
  1 25 35     725.44348145       0.00759375
  1 24 70     742.24206543       0.00800000
  1 33 57     768.27642822       0.00100000
  1 33 66     777.31182861       0.00100000
  1 18 14     653.00000000       0.06400000
  1 23 101     751.65441895       0.04050000
  1 18 32     650.57647705       0.01800000
  1 49 10     682.28015137       0.02700000
  1 29 41     743.00000000       0.00150000
  1 47 86     817.88922119       0.00150000
  1 30 15     745.06256104       0.00800000
  1 51 47     797.15838623       0.00759375
  1 47 104     764.00988770       0.01200000
  1 19 94     657.86981201       0.00800000
  1 40 37     746.58666992       0.00100000
  1 45 12     715.02166748       0.00800000
  1 21 42     681.00000000       0.00800000
  1 26 8     659.00000000       0.04050000
  1 52 20     894.51623535       0.06400000
  1 26 17     741.22674561       0.04050000
  1 24 47     707.57519531       0.00800000
  1 52 29     821.00000000       0.06075000
  1 52 47     821.17193604       0.00800000
  1 17 26     688.05792236       0.06400000
  1 24 74     770.22119141       0.00800000
  1 25 39     725.38647461       0.00759375
  1 36 39     744.15502930       0.00100000
  1 33 52     765.68511963       0.00100000
  1 37 4     639.00000000       0.00800000
  1 37 13     722.40991211       0.00800000
  1 46 80     809.00000000       0.00100000
  1 54 102     943.19378662       0.06075000
  1 48 40     760.33203125       0.00225000
  1 23 105     666.25982666       0.06400000
  1 29 36     733.00000000       0.00150000
  1 22 6     619.00000000       0.06400000
  1 19 80     664.86700439       0.00800000
  1 51 60     806.35253906       0.00759375
  1 31 63     772.94970703       0.00100000
  1 21 37     678.79241943       0.00800000
  1 32 37     737.32891846       0.00100000
  1 52 15     810.95880127       0.06400000
  1 44 11     685.00000000       0.00800000
  1 24 51     703.92913818       0.00800000
  1 14 16     659.55065918       0.06400000
  1 32 64     775.34228516       0.00100000
  1 17 21     733.08862305       0.06400000
  1 24 69     742.24206543       0.00800000
  1 25 34     725.44348145       0.00759375
  1 35 66     779.00000000       0.00100000
  1 25 43     737.04479980       0.00759375
  1 48 8     672.19952393       0.01800000
  1 25 52     740.72552490       0.00759375
  1 46 84     817.06866455       0.00100000
  1 6 11     610.60839844       0.06400000
  1 48 26     805.00000000       0.01800000
  1 37 26     786.18890381       0.00800000
  1 50 54     791.77490234       0.00506250
  1 18 31     651.36291504       0.02700000
  1 49 9     674.14398193       0.02700000
  1 41 5     648.57409668       0.00800000
  1 28 35     733.00000000       0.00225000
  1 47 85     817.00000000       0.00150000
  1 51 46     779.27301025       0.00759375
  1 20 40     678.80957031       0.00800000
  1 51 64     805.41290283       0.00759375
  1 19 93     656.23022461       0.00800000
  1 13 19     713.32824707       0.06400000
  1 19 102     659.06713867       0.06075000
  1 52 10     692.31738281       0.06400000
  1 21 41     679.88452148       0.00800000
  1 52 19     869.89453125       0.06400000
  1 22 104     668.32763672       0.06400000
  1 33 15     735.18756104       0.00800000
  1 24 46     708.75744629       0.00800000
  1 25 11     712.01336670       0.06075000
  1 14 29     648.32489014       0.06075000
  1 25 38     723.40252686       0.00759375
  1 34 105     727.53106689       0.00800000
  1 17 34     649.00000000       0.00800000
  1 56 16     810.88049316       0.06400000
  1 38 66     782.85089111       0.00100000
  1 50 49     790.40301514       0.00506250
  1 51 14     778.09375000       0.06075000
  1 23 95     771.72253418       0.00800000
  1 23 104     681.86077881       0.06400000
  1 51 32     782.67456055       0.01708594
  1 28 39     745.16491699       0.00225000
  1 40 4     643.72894287       0.00800000
  1 20 35     665.00000000       0.00800000
  1 43 37     749.00000000       0.00100000
  1 40 13     715.09478760       0.00800000
  1 19 79     664.86700439       0.00800000
  1 31 62     771.74157715       0.00100000
  1 13 23     633.00000000       0.06400000
  1 22 90     755.99200439       0.00800000
  1 52 14     792.58483887       0.06400000
  1 22 99     759.25756836       0.01800000
  1 24 50     704.34503174       0.00800000
  1 14 24     640.86718750       0.06400000
  1 17 20     741.28295898       0.06400000
  1 53 104     866.42517090       0.06400000
  1 42 104     763.62463379       0.00800000
  1 23 63     721.56811523       0.00800000
  1 48 7     670.08001709       0.01800000
  1 39 26     788.25933838       0.00800000
  1 23 72     763.93786621       0.00800000
  1 29 3     633.34979248       0.01200000
  1 26 105     698.04022217       0.04050000
  1 46 83     812.30126953       0.00100000
  1 6 10     609.00000000       0.06400000
  1 50 44     770.50885010       0.00506250
  1 51 9     681.00000000       0.06075000
  1 50 53     787.00000000       0.00506250
  1 28 34     733.00000000       0.00225000
  1 20 30     674.22430420       0.04050000
  1 51 45     776.69946289       0.00759375
  1 20 39     678.80957031       0.00800000
  1 55 15     804.28790283       0.06400000
  1 40 26     790.48834229       0.00800000
  1 53 54     820.89715576       0.00800000
  1 13 18     700.06475830       0.06400000
  1 22 85     757.91632080       0.00800000
  1 13 27     639.00000000       0.06400000
  1 42 63     789.75311279       0.00100000
  1 44 5     645.99749756       0.00800000
  1 22 103     689.71801758       0.06400000
  1 24 45     712.53228760       0.00800000
  1 25 10     689.08508301       0.06075000
  1 23 49     693.00000000       0.00800000
  1 17 15     655.96899414       0.06400000
  1 23 58     709.00000000       0.00800000
  1 23 67     740.94342041       0.00800000
  1 52 103     853.48645020       0.06400000
  1 27 37     740.07989502       0.00337500
  1 39 39     747.32000732       0.00100000
  1 25 104     695.75469971       0.06075000
  1 19 33     655.21392822       0.01200000
  1 50 48     789.79443359       0.00506250
  1 51 13     767.71594238       0.06075000
  1 43 9     701.00000000       0.00800000
  1 50 57     795.52868652       0.00506250
  1 28 20     779.39404297       0.01800000
  1 48 87     820.24249268       0.00225000
  1 20 16     671.25305176       0.06400000
  1 51 31     778.64526367       0.02562891
  1 28 38     740.00732422       0.00225000
  1 37 105     734.49365234       0.00800000
  1 20 34     665.00000000       0.00800000
  1 43 36     749.00000000       0.00100000
  1 41 66     791.05798340       0.00100000
  1 55 19     890.22100830       0.06400000
  1 53 49     820.29986572       0.00800000
  1 13 13     635.76300049       0.06400000
  1 21 26     719.10833740       0.06400000
  1 32 26     783.89813232       0.00800000
  1 22 89     755.99200439       0.00800000
  1 30 102     777.64465332       0.00759375
  1 44 9     700.25177002       0.00800000
  1 46 37     749.00561523       0.00100000
  1 55 104     937.39074707       0.06400000
  1 36 14     723.00000000       0.00800000
  1 47 11     699.32916260       0.01200000
  1 50 7     673.00000000       0.04050000
  1 23 53     708.94580078       0.00800000
  1 23 62     718.37768555       0.00800000
  1 23 71     755.63659668       0.00800000
  1 47 38     756.21350098       0.00150000
  1 27 32     735.02819824       0.00759375
  1 50 34     777.02331543       0.00506250
  1 50 43     761.00000000       0.00506250
  1 51 8     673.00000000       0.06075000
  1 51 26     827.63671875       0.06075000
  1 20 38     675.45031738       0.00800000
  1 32 3     635.38867188       0.00800000
  1 29 105     709.08319092       0.01200000
  1 53 53     818.40258789       0.00800000
  1 13 17     684.11621094       0.06400000
  1 24 17     722.85028076       0.06400000
  1 54 18     849.51098633       0.06400000
  1 35 14     723.34906006       0.00800000
  1 22 84     757.91632080       0.00800000
  1 22 93     763.00000000       0.00800000
  1 23 30     713.84985352       0.04050000
  1 47 6     648.90423584       0.01200000
  1 23 48     692.90679932       0.00800000
  1 23 57     709.00000000       0.00800000
  1 16 18     710.66094971       0.06400000
  1 23 66     734.19744873       0.00800000
  1 27 18     744.43176270       0.02700000
  1 16 27     669.31304932       0.06400000
  1 27 36     735.11956787       0.00337500
  1 39 38     744.51959229       0.00100000
  1 25 103     707.21386719       0.06075000
  1 19 32     657.17364502       0.01800000
  1 49 42     766.60327148       0.00337500
  1 28 19     758.55816650       0.01800000
  1 48 86     818.33728027       0.00225000
  1 31 15     743.00000000       0.00800000
  1 18 82     657.86627197       0.00800000
  1 48 104     766.61492920       0.01800000
  1 41 65     790.44134521       0.00100000
  1 34 26     785.00000000       0.00800000
  1 53 48     820.79687500       0.00800000
  1 54 13     765.63104248       0.06400000
  1 46 9     711.00000000       0.00800000
  1 22 88     757.75891113       0.00800000
  1 23 16     703.81451416       0.06400000
  1 57 18     822.81976318       0.06400000
  1 21 92     727.95361328       0.00800000
  1 21 101     727.06195068       0.04050000
  1 47 10     684.18554688       0.01200000
  1 23 52     705.27197266       0.00800000
  1 58 19     848.53717041       0.06400000
END period  1

