# File generated by Flopy version 3.3.2 on 08/23/2021 at 10:15:35.
BEGIN options
  PRINT_INPUT
  PRINT_FLOWS
  SAVE_FLOWS
END options

BEGIN dimensions
  MAXBOUND  9
END dimensions

BEGIN period  1
  1 15 16     755.55993652       0.06400000
  1 15 17     778.38848877       0.06400000
  1 15 18     788.40002441       0.06400000
  1 15 19     790.75347900       0.06400000
  1 15 20     796.37231445       0.06400000
  1 14 20     792.01464844       0.06400000
  1 14 21     804.45471191       0.06400000
  1 14 22     809.96520996       0.06400000
  1 14 23     825.50189209       0.06400000
END period  1

