# File generated by Flopy version 3.3.4 on 11/28/2021 at 15:02:50.
BEGIN options
END options

BEGIN continuous  FILEOUT  mod_drn_gal_obs.csv
  gal-flow  drn  gal_flow
END continuous  FILEOUT  mod_drn_gal_obs.csv

