# File generated by Flopy version 3.3.2 on 05/05/2021 at 09:55:08.
BEGIN options
  PRINT_INPUT
  PRINT_FLOWS
  SAVE_FLOWS
END options

BEGIN dimensions
  MAXBOUND  514
END dimensions

BEGIN period  1
  1 19 27     684.11621094       0.02500000
  1 37 63     778.08093262       0.02500000
  1 29 59     678.85375977       0.02500000
  1 19 36     633.00000000       0.02500000
  1 49 46     810.51293945       0.02500000
  1 22 38     672.69470215       0.02500000
  1 41 51     756.52355957       0.02500000
  1 53 25     796.50726318       0.02500000
  1 45 21     751.00000000       0.02500000
  1 42 52     761.11462402       0.02500000
  1 34 48     708.94616699       0.02500000
  1 46 13     669.72418213       0.02500000
  1 23 29     708.36621094       0.02500000
  1 33 61     762.49273682       0.02500000
  1 38 27     732.04577637       0.02500000
  1 23 38     689.00000000       0.02500000
  1 39 1     618.79296875       0.02500000
  1 50 19     724.92687988       0.02500000
  1 37 58     773.57397461       0.02500000
  1 49 23     784.13208008       0.02500000
  1 37 67     699.98303223       0.02500000
  1 29 63     656.94573975       0.02500000
  1 30 28     704.94750977       0.02500000
  1 53 20     760.81079102       0.02500000
  1 45 16     683.20849609       0.02500000
  1 30 64     675.86755371       0.02500000
  1 34 25     688.82269287       0.02500000
  1 54 21     741.99224854       0.02500000
  1 46 17     700.99951172       0.02500000
  1 26 48     650.52496338       0.02500000
  1 35 26     705.00000000       0.02500000
  1 57 26     792.38574219       0.02500000
  1 44 56     792.38787842       0.02500000
  1 52 69     893.29919434       0.02500000
  1 36 70     673.22259521       0.02500000
  1 37 53     711.59307861       0.02500000
  1 49 18     733.45849609       0.02500000
  1 29 49     659.00000000       0.02500000
  1 37 62     798.43914795       0.02500000
  1 29 58     696.84252930       0.02500000
  1 37 71     676.38385010       0.02500000
  1 41 32     782.13262939       0.02500000
  1 30 41     718.15399170       0.02500000
  1 41 41     780.88208008       0.02500000
  1 42 6     639.00000000       0.02500000
  1 30 50     674.24328613       0.02500000
  1 41 50     740.87640381       0.02500000
  1 42 24     733.00000000       0.02500000
  1 45 20     737.67889404       0.02500000
  1 46 12     668.52947998       0.02500000
  1 44 42     791.00000000       0.02500000
  1 33 51     684.59692383       0.02500000
  1 38 17     713.00000000       0.02500000
  1 23 28     697.00000000       0.02500000
  1 36 47     724.92523193       0.02500000
  1 33 60     735.00000000       0.02500000
  1 56 25     805.00000000       0.02500000
  1 36 56     726.41046143       0.02500000
  1 44 69     747.25567627       0.02500000
  1 48 48     780.40008545       0.02500000
  1 37 57     752.01910400       0.02500000
  1 49 22     775.25799561       0.02500000
  1 7 16     609.00000000       0.02500000
  1 37 66     719.83825684       0.02500000
  1 49 31     893.35577393       0.02500000
  1 51 68     868.91833496       0.02500000
  1 53 19     734.40649414       0.02500000
  1 40 49     728.55609131       0.02500000
  1 53 28     838.33093262       0.02500000
  1 40 67     719.95806885       0.02500000
  1 25 33     731.49359131       0.02500000
  1 25 42     675.28143311       0.02500000
  1 44 55     790.22723389       0.02500000
  1 52 68     891.23156738       0.02500000
  1 15 19     621.00000000       0.02500000
  1 33 64     738.74340820       0.02500000
  1 41 4     633.00000000       0.02500000
  1 37 52     711.15594482       0.02500000
  1 48 52     797.15838623       0.02500000
  1 29 48     665.00000000       0.02500000
  1 41 31     773.73919678       0.02500000
  1 22 27     691.89190674       0.02500000
  1 42 5     636.66375732       0.02500000
  1 22 36     680.44390869       0.02500000
  1 31 66     670.83587646       0.02500000
  1 45 10     653.15106201       0.02500000
  1 45 19     705.95996094       0.02500000
  1 52 18     737.11694336       0.02500000
  1 33 41     726.06909180       0.02500000
  1 44 41     801.00000000       0.02500000
  1 44 50     749.00000000       0.02500000
  1 36 46     730.32360840       0.02500000
  1 33 59     737.65496826       0.02500000
  1 56 24     776.67224121       0.02500000
  1 60 31     866.27099609       0.02500000
  1 18 25     655.01184082       0.02500000
  1 29 25     673.95166016       0.02500000
  1 18 43     643.12207031       0.02500000
  1 49 21     758.42956543       0.02500000
  1 51 40     847.46936035       0.02500000
  1 22 22     641.17370605       0.02500000
  1 51 67     879.07690430       0.02500000
  1 40 30     765.84033203       0.02500000
  1 31 61     721.32281494       0.02500000
  1 33 9     621.00000000       0.02500000
  1 52 22     758.60949707       0.02500000
  1 44 18     694.11846924       0.02500000
  1 32 62     734.99835205       0.02500000
  1 25 23     649.97143555       0.02500000
  1 54 68     935.01275635       0.02500000
  1 25 32     741.08087158       0.02500000
  1 36 41     750.83197021       0.02500000
  1 48 15     691.59912109       0.02500000
  1 18 20     630.40643311       0.02500000
  1 50 52     821.39306641       0.02500000
  1 59 30     843.38903809       0.02500000
  1 41 3     627.88299561       0.02500000
  1 39 70     693.92126465       0.02500000
  1 28 42     689.55065918       0.02500000
  1 51 53     818.28894043       0.02500000
  1 31 47     689.00000000       0.02500000
  1 21 21     636.48999023       0.02500000
  1 55 23     781.33874512       0.02500000
  1 31 65     687.10736084       0.02500000
  1 24 35     703.69964600       0.02500000
  1 52 17     711.04174805       0.02500000
  1 32 48     691.00000000       0.02500000
  1 36 9     621.99432373       0.02500000
  1 36 27     722.64605713       0.02500000
  1 35 68     686.23321533       0.02500000
  1 46 68     779.00000000       0.02500000
  1 37 10     629.70587158       0.02500000
  1 56 23     762.70935059       0.02500000
  1 47 51     780.21466064       0.02500000
  1 50 47     821.00000000       0.02500000
  1 18 24     649.07989502       0.02500000
  1 29 24     662.63226318       0.02500000
  1 51 21     737.00000000       0.02500000
  1 51 39     852.19451904       0.02500000
  1 31 51     681.28161621       0.02500000
  1 40 29     756.10449219       0.02500000
  1 21 25     665.54895020       0.02500000
  1 32 25     681.60034180       0.02500000
  1 21 43     646.27368164       0.02500000
  1 44 8     649.00000000       0.02500000
  1 52 21     767.23205566       0.02500000
  1 44 17     693.62121582       0.02500000
  1 35 54     709.00000000       0.02500000
  1 48 14     681.00000000       0.02500000
  1 38 68     695.88275146       0.02500000
  1 47 55     803.04443359       0.02500000
  1 27 49     650.01727295       0.02500000
  1 51 16     703.76446533       0.02500000
  1 59 29     820.77807617       0.02500000
  1 28 23     653.77368164       0.02500000
  1 51 25     801.74377441       0.02500000
  1 43 21     711.00000000       0.02500000
  1 31 28     704.64318848       0.02500000
  1 20 28     697.58190918       0.02500000
  1 28 50     654.56433105       0.02500000
  1 51 52     820.93609619       0.02500000
  1 20 46     643.21679688       0.02500000
  1 28 59     654.08673096       0.02500000
  1 55 22     748.64172363       0.02500000
  1 31 64     706.36376953       0.02500000
  1 21 29     706.39617920       0.02500000
  1 21 38     649.03723145       0.02500000
  1 53 70     935.83258057       0.02500000
  1 24 34     718.00103760       0.02500000
  1 42 70     721.60308838       0.02500000
  1 34 66     712.10437012       0.02500000
  1 46 49     778.71697998       0.02500000
  1 36 26     713.22576904       0.02500000
  1 17 22     636.27392578       0.02500000
  1 35 67     690.68511963       0.02500000
  1 58 32     875.80371094       0.02500000
  1 47 41     818.11376953       0.02500000
  1 43 7     644.57238770       0.02500000
  1 51 20     750.26214600       0.02500000
  1 51 29     840.27087402       0.02500000
  1 40 1     622.67181396       0.02500000
  1 49 68     828.62805176       0.02500000
  1 31 41     716.79498291       0.02500000
  1 31 50     673.01904297       0.02500000
  1 40 28     743.00000000       0.02500000
  1 42 56     778.25183105       0.02500000
  1 34 52     692.25073242       0.02500000
  1 24 29     714.85296631       0.02500000
  1 34 61     762.23773193       0.02500000
  1 44 7     641.75872803       0.02500000
  1 23 42     670.06298828       0.02500000
  1 35 53     705.27197266       0.02500000
  1 46 53     791.47296143       0.02500000
  1 38 49     732.79162598       0.02500000
  1 39 14     673.16839600       0.02500000
  1 35 62     771.17358398       0.02500000
  1 58 27     808.06744385       0.02500000
  1 16 21     625.35766602       0.02500000
  1 35 71     666.92382812       0.02500000
  1 38 67     703.34613037       0.02500000
  1 19 26     665.00000000       0.02500000
  1 39 41     767.13281250       0.02500000
  1 27 48     652.19165039       0.02500000
  1 31 9     615.97698975       0.02500000
  1 43 20     722.27264404       0.02500000
  1 31 27     690.32452393       0.02500000
  1 20 27     686.29632568       0.02500000
  1 20 36     640.70721436       0.02500000
  1 20 45     640.67706299       0.02500000
  1 42 51     761.00000000       0.02500000
  1 34 47     713.00000000       0.02500000
  1 53 69     914.05023193       0.02500000
  1 42 69     745.22430420       0.02500000
  1 34 65     736.32037354       0.02500000
  1 57 30     848.71350098       0.02500000
  1 23 37     692.51965332       0.02500000
  1 35 57     763.93786621       0.02500000
  1 38 53     729.79589844       0.02500000
  1 50 18     721.15527344       0.02500000
  1 58 31     860.94415283       0.02500000
  1 39 27     734.57818604       0.02500000
  1 19 21     636.02862549       0.02500000
  1 19 30     712.45526123       0.02500000
  1 43 6     640.08343506       0.02500000
  1 51 19     751.17413330       0.02500000
  1 43 15     737.47583008       0.02500000
  1 61 32     876.54260254       0.02500000
  1 30 63     675.26898193       0.02500000
  1 45 42     800.50323486       0.02500000
  1 42 55     773.00000000       0.02500000
  1 54 20     741.78649902       0.02500000
  1 45 51     774.71032715       0.02500000
  1 5 15     608.12622070       0.02500000
  1 46 16     690.89117432       0.02500000
  1 54 29     856.01788330       0.02500000
  1 45 60     819.81750488       0.02500000
  1 23 23     648.18402100       0.02500000
  1 57 25     779.22015381       0.02500000
  1 45 69     774.33746338       0.02500000
  1 35 52     697.83557129       0.02500000
  1 46 52     781.87738037       0.02500000
  1 39 13     674.39477539       0.02500000
  1 16 20     622.91259766       0.02500000
  1 50 31     892.91046143       0.02500000
  1 19 25     649.00000000       0.02500000
  1 37 70     675.00000000       0.02500000
  1 27 47     661.65216064       0.02500000
  1 29 66     661.00000000       0.02500000
  1 19 43     639.00000000       0.02500000
  1 49 53     813.10137939       0.02500000
  1 30 49     667.96856689       0.02500000
  1 41 49     744.67150879       0.02500000
  1 31 26     684.18511963       0.02500000
  1 20 26     671.22851562       0.02500000
  1 22 45     651.33526611       0.02500000
  1 30 58     711.97100830       0.02500000
  1 42 23     739.07543945       0.02500000
  1 41 67     744.23492432       0.02500000
  1 42 41     785.31231689       0.02500000
  1 42 50     738.42645264       0.02500000
  1 46 11     660.58410645       0.02500000
  1 26 42     681.00000000       0.02500000
  1 54 24     818.76995850       0.02500000
  1 38 16     700.20111084       0.02500000
  1 23 27     693.33563232       0.02500000
  1 33 68     665.59185791       0.02500000
  1 47 12     691.01989746       0.02500000
  1 39 17     702.91949463       0.02500000
  1 50 17     701.96704102       0.02500000
  1 19 20     635.58160400       0.02500000
  1 19 29     704.09539795       0.02500000
  1 37 65     749.92535400       0.02500000
  1 29 61     655.00000000       0.02500000
  1 19 38     633.00000000       0.02500000
  1 49 48     795.12341309       0.02500000
  1 53 18     728.90429688       0.02500000
  1 61 31     859.93640137       0.02500000
  1 45 14     690.12329102       0.02500000
  1 53 27     808.17956543       0.02500000
  1 34 41     728.65795898       0.02500000
  1 45 41     805.00000000       0.02500000
  1 54 19     750.33673096       0.02500000
  1 45 50     750.23748779       0.02500000
  1 46 15     681.00000000       0.02500000
  1 54 28     835.09735107       0.02500000
  1 38 11     639.00000000       0.02500000
  1 23 22     639.62316895       0.02500000
  1 57 24     788.20086670       0.02500000
  1 33 63     751.89807129       0.02500000
  1 39 12     667.00000000       0.02500000
  1 16 19     621.00000000       0.02500000
  1 37 51     718.67944336       0.02500000
  1 49 16     700.41217041       0.02500000
  1 37 69     683.99792480       0.02500000
  1 29 65     659.32794189       0.02500000
  1 41 30     760.36779785       0.02500000
  1 22 26     675.36993408       0.02500000
  1 49 52     800.62847900       0.02500000
  1 22 35     686.74908447       0.02500000
  1 30 48     676.30084229       0.02500000
  1 22 44     653.75695801       0.02500000
  1 45 9     647.41943359       0.02500000
  1 34 9     619.00000000       0.02500000
  1 53 22     789.00000000       0.02500000
  1 26 23     650.01428223       0.02500000
  1 40 70     699.79638672       0.02500000
  1 46 10     658.40521240       0.02500000
  1 46 19     729.25958252       0.02500000
  1 38 15     699.98046875       0.02500000
  1 23 26     681.00000000       0.02500000
  1 33 67     675.00000000       0.02500000
  1 37 28     738.09539795       0.02500000
  1 60 30     842.41918945       0.02500000
  1 29 42     703.34918213       0.02500000
  1 18 42     641.76385498       0.02500000
  1 48 55     808.86315918       0.02500000
  1 49 20     733.85174561       0.02500000
  1 37 64     769.85156250       0.02500000
  1 41 25     746.41040039       0.02500000
  1 30 25     666.98358154       0.02500000
  1 22 21     639.04754639       0.02500000
  1 49 47     797.22619629       0.02500000
  1 51 66     891.28710938       0.02500000
  1 45 13     677.89813232       0.02500000
  1 53 26     793.11437988       0.02500000
  1 32 61     729.00000000       0.02500000
  1 52 39     861.13476562       0.02500000
  1 46 14     672.79943848       0.02500000
  1 38 10     635.31781006       0.02500000
  1 52 66     917.87841797       0.02500000
  1 33 62     762.89166260       0.02500000
  1 48 23     777.55065918       0.02500000
  1 36 67     696.50933838       0.02500000
  1 37 41     755.06134033       0.02500000
  1 48 41     827.58074951       0.02500000
  1 41 2     626.08898926       0.02500000
  1 49 15     691.00000000       0.02500000
  1 49 24     811.94128418       0.02500000
  1 29 64     659.00000000       0.02500000
  1 30 29     721.25231934       0.02500000
  1 22 43     655.35424805       0.02500000
  1 45 8     652.22827148       0.02500000
  1 53 21     763.11090088       0.02500000
  1 45 17     692.83349609       0.02500000
  1 52 25     780.86914062       0.02500000
  1 32 65     712.74426270       0.02500000
  1 52 52     829.39355469       0.02500000
  1 33 48     694.23364258       0.02500000
  1 56 22     769.00000000       0.02500000
  1 36 53     699.00000000       0.02500000
  1 37 27     716.79125977       0.02500000
  1 18 23     640.88488770       0.02500000
  1 36 71     668.36920166       0.02500000
  1 47 68     794.48400879       0.02500000
  1 29 41     719.88311768       0.02500000
  1 49 19     737.70977783       0.02500000
  1 41 24     747.11041260       0.02500000
  1 22 29     708.44073486       0.02500000
  1 52 20     772.00915527       0.02500000
  1 32 51     681.74908447       0.02500000
  1 32 60     731.00000000       0.02500000
  1 33 25     681.00000000       0.02500000
  1 33 52     699.00000000       0.02500000
  1 48 13     678.87780762       0.02500000
  1 36 57     754.10461426       0.02500000
  1 48 22     772.43939209       0.02500000
  1 47 54     796.86541748       0.02500000
  1 6 16     609.00000000       0.02500000
  1 48 40     823.57238770       0.02500000
  1 50 68     844.23730469       0.02500000
  1 39 68     702.11523438       0.02500000
  1 7 17     610.86499023       0.02500000
  1 28 49     653.00000000       0.02500000
  1 43 56     785.08117676       0.02500000
  1 51 69     873.13348389       0.02500000
  1 40 32     786.57373047       0.02500000
  1 31 63     716.40716553       0.02500000
  1 21 28     695.12420654       0.02500000
  1 55 30     880.35107422       0.02500000
  1 40 41     775.28955078       0.02500000
  1 40 50     741.08477783       0.02500000
  1 24 33     741.52905273       0.02500000
  1 24 42     671.00000000       0.02500000
  1 52 24     770.66027832       0.02500000
  1 44 20     715.78973389       0.02500000
  1 32 64     727.76806641       0.02500000
  1 17 21     627.82733154       0.02500000
  1 54 70     955.01824951       0.02500000
  1 36 52     729.58544922       0.02500000
  1 38 71     687.55145264       0.02500000
  1 47 49     771.17236328       0.02500000
  1 18 22     633.91796875       0.02500000
  1 51 28     817.10119629       0.02500000
  1 41 5     635.01184082       0.02500000
  1 40 27     749.89904785       0.02500000
  1 55 25     817.85400391       0.02500000
  1 13 19     619.66735840       0.02500000
  1 43 69     744.59063721       0.02500000
  1 32 41     719.00000000       0.02500000
  1 52 19     760.94500732       0.02500000
  1 32 50     680.23577881       0.02500000
  1 44 15     724.74060059       0.02500000
  1 35 61     772.61700439       0.02500000
  1 48 12     672.83184814       0.02500000
  1 38 66     719.58026123       0.02500000
  1 50 40     839.48028564       0.02500000
  1 47 53     792.91534424       0.02500000
  1 6 15     607.10638428       0.02500000
  1 39 49     721.00000000       0.02500000
  1 51 23     771.23834229       0.02500000
  1 50 67     859.23883057       0.02500000
  1 39 67     711.01177979       0.02500000
  1 28 48     657.85784912       0.02500000
  1 32 9     617.87890625       0.02500000
  1 40 31     779.16210938       0.02500000
  1 31 62     723.83563232       0.02500000
  1 21 27     689.09692383       0.02500000
  1 55 29     859.94671631       0.02500000
  1 24 23     650.58697510       0.02500000
  1 21 36     660.01745605       0.02500000
  1 53 68     912.04888916       0.02500000
  1 21 45     645.98992920       0.02500000
  1 52 23     768.46148682       0.02500000
  1 44 19     707.99249268       0.02500000
  1 35 47     711.33709717       0.02500000
  1 35 56     740.94342041       0.02500000
  1 54 69     938.38940430       0.02500000
  1 35 65     733.24829102       0.02500000
  1 58 30     848.31311035       0.02500000
  1 38 70     692.30242920       0.02500000
  1 47 48     801.00000000       0.02500000
  1 27 42     681.00000000       0.02500000
  1 50 53     812.12652588       0.02500000
  1 51 27     799.01818848       0.02500000
  1 43 23     742.49621582       0.02500000
  1 20 21     639.00000000       0.02500000
  1 43 41     788.53045654       0.02500000
  1 31 48     687.11724854       0.02500000
  1 43 50     750.29821777       0.02500000
  1 21 22     640.16271973       0.02500000
  1 42 54     768.27642822       0.02500000
  1 24 27     705.77258301       0.02500000
  1 45 59     812.63269043       0.02500000
  1 44 14     705.96392822       0.02500000
  1 34 68     676.79199219       0.02500000
  1 45 68     776.51080322       0.02500000
  1 36 10     624.98754883       0.02500000
  1 14 19     620.09631348       0.02500000
  1 46 51     761.35705566       0.02500000
  1 50 21     750.25256348       0.02500000
  1 50 30     856.80419922       0.02500000
  1 47 52     787.04467773       0.02500000
  1 51 22     765.39392090       0.02500000
  1 31 25     667.19573975       0.02500000
  1 20 25     657.71435547       0.02500000
  1 28 47     662.25213623       0.02500000
  1 30 66     666.36462402       0.02500000
  1 41 66     756.47192383       0.02500000
  1 20 43     641.36981201       0.02500000
  1 21 26     673.30334473       0.02500000
  1 54 23     808.58197021       0.02500000
  1 34 54     710.71990967       0.02500000
  1 26 50     649.32904053       0.02500000
  1 23 35     698.35858154       0.02500000
  1 35 46     720.14886475       0.02500000
  1 47 11     672.38751221       0.02500000
  1 23 44     659.16284180       0.02500000
  1 35 55     718.37768555       0.02500000
  1 38 51     717.00000000       0.02500000
  1 50 16     697.00000000       0.02500000
  1 35 64     751.65441895       0.02500000
  1 58 29     826.33850098       0.02500000
  1 27 23     654.28631592       0.02500000
  1 19 28     696.60247803       0.02500000
  1 27 50     648.52893066       0.02500000
  1 51 17     723.55963135       0.02500000
  1 19 46     639.00000000       0.02500000
  1 28 24     663.65502930       0.02500000
  1 51 26     800.27978516       0.02500000
  1 43 22     722.86102295       0.02500000
  1 30 61     695.09375000       0.02500000
  1 20 38     637.06170654       0.02500000
  1 41 70     709.15856934       0.02500000
  1 42 53     765.68511963       0.02500000
  1 34 67     685.94793701       0.02500000
  1 38 28     735.67535400       0.02500000
  1 35 41     735.41668701       0.02500000
  1 46 41     809.49627686       0.02500000
  1 39 2     624.38311768       0.02500000
  1 46 50     761.82293701       0.02500000
  1 39 11     647.64416504       0.02500000
  1 50 20     731.61279297       0.02500000
  1 58 33     912.67669678       0.02500000
  1 50 29     852.86499023       0.02500000
  1 48 68     807.28918457       0.02500000
  1 37 68     691.29766846       0.02500000
  1 30 47     681.00000000       0.02500000
  1 40 2     625.31500244       0.02500000
  1 30 65     668.26043701       0.02500000
  1 41 65     774.23406982       0.02500000
  1 34 26     697.74938965       0.02500000
  1 35 9     620.31494141       0.02500000
  1 54 22     748.50451660       0.02500000
  1 34 53     703.78051758       0.02500000
  1 46 18     711.11108398       0.02500000
  1 26 49     647.00000000       0.02500000
  1 34 62     764.44769287       0.02500000
  1 57 27     814.37750244       0.02500000
  1 23 43     660.46624756       0.02500000
  1 47 10     662.64465332       0.02500000
  1 38 41     759.79431152       0.02500000
  1 38 50     721.05786133       0.02500000
  1 39 15     688.30297852       0.02500000
  1 58 28     805.68157959       0.02500000
END period  1

