# File generated by Flopy version 3.3.2 on 08/10/2021 at 22:32:43.
BEGIN options
  COMPLEXITY  complex
END options

