# File generated by Flopy version 3.3.4 on 11/27/2021 at 23:24:33.
BEGIN options
  PRINT_INPUT
  PRINT_FLOWS
  SAVE_FLOWS
END options

BEGIN dimensions
  MAXBOUND  187
END dimensions

BEGIN period  1
  1 2 10     625.00000000
  1 3 9     645.00000000
  1 3 10     616.09197998
  1 3 11     609.00000000
  1 3 15     617.00000000
  1 3 16     614.85626221
  1 3 17     615.00000000
  1 3 18     620.79364014
  1 3 19     649.96173096
  1 4 9     632.00000000
  1 4 10     631.00000000
  1 4 11     625.76702881
  1 4 12     609.00000000
  1 4 13     611.00000000
  1 4 14     611.00000000
  1 4 15     618.49859619
  1 4 16     619.73052979
  1 4 17     619.01135254
  1 4 18     620.72277832
  1 4 19     619.44714355
  1 4 20     653.23956299
  1 5 9     620.00000000
  1 5 19     626.43383789
  1 5 20     624.85302734
  1 6 9     621.00000000
  1 6 10     609.00000000
  1 6 20     621.62341309
  1 7 9     621.00000000
  1 7 10     609.71185303
  1 7 20     621.00000000
  1 8 10     609.10931396
  1 8 20     621.00000000
  1 9 10     609.00000000
  1 9 20     631.91522217
  1 9 21     625.00000000
  1 9 22     666.14239502
  1 10 10     609.00000000
  1 10 22     625.00000000
  1 11 10     609.00000000
  1 11 22     629.71881104
  1 11 23     635.76678467
  1 12 9     623.00000000
  1 12 10     611.00000000
  1 12 22     629.00000000
  1 12 26     641.58166504
  1 12 27     644.44354248
  1 12 28     648.75439453
  1 13 9     610.69122314
  1 13 10     611.00000000
  1 13 22     635.33453369
  1 13 23     633.00000000
  1 13 24     633.00000000
  1 13 25     634.00860596
  1 13 26     636.39703369
  1 13 27     639.00000000
  1 13 28     639.50634766
  1 13 29     639.00000000
  1 14 9     611.00000000
  1 14 10     611.85748291
  1 14 29     648.32489014
  1 14 30     640.40966797
  1 14 31     645.53344727
  1 14 32     641.00000000
  1 15 9     612.10095215
  1 15 10     613.00000000
  1 15 32     643.36614990
  1 15 33     649.95355225
  1 16 9     612.87792969
  1 16 10     613.86596680
  1 16 32     643.96569824
  1 16 33     649.00000000
  1 17 9     613.53112793
  1 17 10     614.88952637
  1 17 31     647.43408203
  1 17 32     645.83898926
  1 17 33     648.58990479
  1 17 34     649.00000000
  1 17 35     649.00000000
  1 17 36     649.43713379
  1 17 37     650.05902100
  1 17 38     651.00231934
  1 17 39     651.05395508
  1 17 40     651.05395508
  1 18 9     614.21209717
  1 18 10     632.07202148
  1 18 35     647.65911865
  1 18 36     648.20562744
  1 18 37     648.52893066
  1 18 38     648.54302979
  1 18 39     648.35382080
  1 18 40     648.35382080
  1 18 41     648.18792725
  1 18 42     648.57525635
  1 18 43     649.00000000
  1 18 44     649.00000000
  1 18 45     649.00000000
  1 18 46     649.00000000
  1 18 47     649.00000000
  1 18 48     649.27191162
  1 18 49     649.88159180
  1 18 50     649.88159180
  1 18 51     650.28155518
  1 18 52     650.24304199
  1 18 53     649.81335449
  1 18 54     649.32226562
  1 18 55     649.32226562
  1 18 56     649.16259766
  1 18 57     650.05676270
  1 18 58     650.78289795
  1 18 59     651.00000000
  1 18 60     651.00000000
  1 18 61     651.00000000
  1 18 62     651.00000000
  1 18 63     651.17871094
  1 18 64     652.22375488
  1 18 65     652.22375488
  1 18 66     652.04144287
  1 18 67     652.13256836
  1 18 68     652.74749756
  1 18 69     653.00000000
  1 18 70     653.00000000
  1 18 71     653.00000000
  1 18 72     653.00000000
  1 18 73     653.00000000
  1 18 74     655.40112305
  1 18 75     655.40112305
  1 18 76     655.84869385
  1 18 77     656.26422119
  1 18 78     656.58209229
  1 18 79     656.99749756
  1 18 80     656.99749756
  1 18 81     657.45245361
  1 18 82     657.86627197
  1 18 83     658.07672119
  1 18 84     659.00000000
  1 18 85     659.00000000
  1 18 86     659.00000000
  1 19 7     614.46374512
  1 19 8     614.69836426
  1 19 9     615.30767822
  1 19 80     664.86700439
  1 19 81     660.43737793
  1 19 82     658.80749512
  1 19 83     658.25604248
  1 19 84     656.52203369
  1 19 85     656.52203369
  1 19 86     655.92327881
  1 19 87     655.15020752
  1 19 88     655.00000000
  1 19 89     655.00000000
  1 19 90     655.00000000
  1 19 91     655.00000000
  1 19 92     655.32824707
  1 19 93     656.23022461
  1 19 94     657.86981201
  1 19 95     657.86981201
  1 19 96     658.48254395
  1 19 97     659.32849121
  1 19 98     660.18536377
  1 19 99     659.67163086
  1 19 100     657.11877441
  1 19 101     659.00000000
  1 19 102     659.06713867
  1 19 103     698.33245850
  1 20 6     615.24462891
  1 20 7     615.00000000
  1 20 8     615.00000000
  1 20 9     640.53295898
  1 20 103     661.00000000
  1 21 4     630.00000000
  1 21 5     616.06866455
  1 21 6     617.53771973
  1 21 7     617.00000000
  1 21 103     670.93957520
  1 21 104     667.60064697
  1 22 3     633.00000000
  1 22 4     617.97308350
  1 22 104     668.32763672
  1 22 105     670.27239990
  1 23 2     636.00000000
  1 23 3     621.09991455
  1 23 105     666.25982666
  1 23 106     678.78497314
  1 24 1     635.00000000
  1 24 2     619.90130615
  1 25 1     618.22619629
  1 26 1     619.00000000
END period  1

