# File generated by Flopy version 3.3.2 on 05/27/2021 at 10:50:17.
BEGIN options
END options

BEGIN packages
  OC6  modelo_Norte.oc  oc
  NPF6  modelo_Norte.npf  npf
  IC6  modelo_Norte.ic  ic
  DRN6  modelo_Norte.drn  drn
  RCH6  modelo_Norte.rch  rch
  DIS6  modelo_Norte.dis  dis
  CHD6  modelo_Norte.chd  chd
END packages

