# File generated by Flopy version 3.3.2 on 05/27/2021 at 10:50:17.
BEGIN options
  PRINT_INPUT
  PRINT_FLOWS
  SAVE_FLOWS
END options

BEGIN dimensions
  MAXBOUND  839
END dimensions

BEGIN period  1
  1 2 8  2.35189076E-07
  1 3 8  4.65026493E-07
  1 4 7  2.37520107E-08
  1 4 8  7.18978529E-07
  1 4 15  3.70762423E-07
  1 4 16  1.41071187E-07
  1 5 7  5.31801440E-09
  1 5 8  1.17205493E-06
  1 5 9  5.31803450E-07
  1 5 10  5.77246600E-08
  1 5 15  4.02482693E-07
  1 5 16  6.16467782E-07
  1 6 8  8.18425469E-07
  1 6 9  1.27314815E-06
  1 6 10  4.45638404E-07
  1 6 13  1.90930748E-07
  1 6 14  9.71306369E-08
  1 6 15  6.46111089E-08
  1 6 16  7.89368544E-07
  1 7 8  4.48406014E-07
  1 7 9  1.27314815E-06
  1 7 10  2.49145349E-07
  1 7 13  7.66614996E-07
  1 7 14  1.12004495E-07
  1 7 15  1.43498409E-07
  1 7 16  8.73427779E-07
  1 7 17  9.28892921E-08
  1 8 8  2.34245492E-07
  1 8 9  1.23106830E-06
  1 8 10  2.35343000E-08
  1 8 13  1.13132460E-06
  1 8 14  1.27314815E-06
  1 8 15  1.09530253E-06
  1 8 16  8.75835867E-07
  1 8 17  1.00817216E-06
  1 8 18  6.97983499E-08
  1 9 8  3.89704984E-07
  1 9 9  1.03837291E-06
  1 9 12  1.16518772E-07
  1 9 13  1.27001961E-06
  1 9 14  5.86083508E-07
  1 9 15  8.52850599E-07
  1 9 16  1.27314815E-06
  1 9 17  1.27314815E-06
  1 9 18  3.03471883E-07
  1 10 8  8.39951544E-07
  1 10 9  9.07607995E-07
  1 10 10  1.20112771E-08
  1 10 12  2.67662021E-07
  1 10 13  1.05975459E-06
  1 10 14  8.03280886E-07
  1 10 15  5.96774282E-07
  1 10 16  1.26658390E-06
  1 10 17  1.27314815E-06
  1 10 18  1.48610986E-07
  1 10 22  9.72871297E-10
  1 11 8  1.04312960E-06
  1 11 9  1.13549245E-06
  1 11 10  1.28372183E-07
  1 11 12  9.55951668E-07
  1 11 13  1.02012557E-06
  1 11 14  5.68465977E-07
  1 11 15  3.59077924E-07
  1 11 16  5.11807590E-07
  1 11 17  1.27314815E-06
  1 11 18  1.10707830E-06
  1 11 19  8.25177190E-07
  1 11 20  7.51963007E-07
  1 11 21  4.57690119E-07
  1 11 22  2.74066825E-07
  1 11 23  2.75664210E-07
  1 12 8  1.02000295E-06
  1 12 9  1.09809967E-06
  1 12 10  7.71439301E-08
  1 12 11  5.50698982E-07
  1 12 12  7.01986718E-07
  1 12 13  1.27314815E-06
  1 12 14  8.83044449E-07
  1 12 15  1.56501381E-07
  1 12 16  9.88503358E-09
  1 12 17  1.26657336E-06
  1 12 18  1.24211740E-06
  1 12 19  1.15609936E-06
  1 12 20  1.19161326E-06
  1 12 21  6.14225854E-07
  1 12 22  3.96837717E-07
  1 12 23  8.53509122E-07
  1 12 24  2.07473706E-07
  1 12 25  2.69046924E-07
  1 13 8  1.09602110E-06
  1 13 9  1.27314815E-06
  1 13 10  2.23269816E-07
  1 13 11  6.94978763E-07
  1 13 12  3.05444149E-07
  1 13 13  1.27281496E-06
  1 13 14  1.24021300E-06
  1 13 15  5.91821669E-07
  1 13 16  2.00295576E-07
  1 13 17  1.27314815E-06
  1 13 18  5.69548938E-07
  1 13 19  7.30551548E-07
  1 13 20  4.07168325E-07
  1 13 21  6.39667595E-07
  1 13 22  1.08027125E-06
  1 13 23  9.29702051E-07
  1 13 24  1.13374769E-06
  1 13 25  9.80653575E-07
  1 13 26  8.17840544E-08
  1 14 7  3.67362290E-08
  1 14 8  1.23851839E-06
  1 14 9  1.26529135E-06
  1 14 10  8.50703057E-08
  1 14 11  4.12297847E-07
  1 14 12  7.89362183E-07
  1 14 13  1.26409797E-06
  1 14 14  7.92356842E-07
  1 14 15  1.70898368E-08
  1 14 16  1.56947271E-07
  1 14 17  6.08945471E-07
  1 14 18  8.59032547E-07
  1 14 19  2.74690768E-08
  1 14 20  4.43300568E-08
  1 14 21  8.75956494E-07
  1 14 22  1.02775616E-06
  1 14 23  5.44940798E-07
  1 14 24  6.60455983E-07
  1 14 25  8.10924828E-07
  1 14 26  6.18534710E-07
  1 14 27  2.08003552E-07
  1 14 28  1.55817861E-08
  1 15 7  3.59658009E-07
  1 15 8  1.26127197E-06
  1 15 9  9.51009631E-07
  1 15 10  6.87572045E-07
  1 15 11  4.60861706E-07
  1 15 12  1.16189583E-06
  1 15 13  3.80373858E-07
  1 15 14  1.08827447E-08
  1 15 18  3.35963072E-07
  1 15 19  6.22537830E-07
  1 15 20  1.91322627E-07
  1 15 21  1.03851931E-06
  1 15 22  5.59247285E-07
  1 15 23  5.68849224E-07
  1 15 24  7.89418656E-07
  1 15 25  2.87930507E-07
  1 15 26  8.76836664E-07
  1 15 27  4.90878494E-07
  1 15 28  6.20586984E-07
  1 15 29  6.11117544E-07
  1 15 30  6.01723038E-07
  1 15 31  7.82925097E-07
  1 15 32  9.51643054E-07
  1 15 33  9.87317721E-07
  1 15 34  9.61157590E-07
  1 15 35  8.56895886E-07
  1 15 36  6.26372613E-07
  1 15 37  2.54899589E-07
  1 15 38  5.35498229E-09
  1 16 6  1.46835679E-07
  1 16 7  1.09628433E-06
  1 16 8  4.34864201E-07
  1 16 9  5.15766489E-07
  1 16 10  9.58310459E-07
  1 16 11  4.09749330E-08
  1 16 12  5.61978120E-07
  1 16 13  1.13057931E-06
  1 16 14  6.99414252E-07
  1 16 15  7.13390939E-07
  1 16 19  6.93882762E-07
  1 16 20  1.32075083E-07
  1 16 21  8.59165656E-07
  1 16 22  7.01895279E-07
  1 16 23  5.53265066E-07
  1 16 24  9.89410642E-07
  1 16 25  1.24762734E-06
  1 16 26  1.00123715E-06
  1 16 27  8.85129692E-07
  1 16 28  5.08329993E-07
  1 16 29  2.51436130E-07
  1 16 30  6.51677455E-07
  1 16 31  1.20440411E-06
  1 16 32  1.24599578E-06
  1 16 33  1.01744189E-06
  1 16 34  9.16514753E-07
  1 16 35  8.95866213E-07
  1 16 36  9.96878308E-07
  1 16 37  1.18153346E-06
  1 16 38  1.15494572E-06
  1 16 39  8.72223237E-07
  1 16 40  1.02384647E-06
  1 16 41  4.19551898E-07
  1 17 6  6.84632349E-07
  1 17 7  1.27314815E-06
  1 17 8  4.44822671E-07
  1 17 9  3.03717383E-07
  1 17 10  1.22285405E-06
  1 17 11  1.08326862E-08
  1 17 12  3.82560962E-07
  1 17 13  1.27314815E-06
  1 17 14  1.27314815E-06
  1 17 15  1.26512158E-06
  1 17 16  3.22106033E-07
  1 17 19  7.89506794E-07
  1 17 20  4.67725249E-07
  1 17 21  4.02986380E-07
  1 17 22  5.34307488E-07
  1 17 23  6.02403408E-07
  1 17 24  4.01256059E-07
  1 17 25  4.47604471E-07
  1 17 26  1.21223356E-06
  1 17 27  1.00479052E-06
  1 17 28  6.01326485E-07
  1 17 29  3.37388392E-07
  1 17 30  3.20596341E-07
  1 17 31  7.10153621E-07
  1 17 32  7.45584854E-07
  1 17 33  5.33058611E-07
  1 17 34  9.28529388E-08
  1 17 35  1.42168319E-07
  1 17 36  1.97140023E-07
  1 17 37  5.60980799E-07
  1 17 38  8.52087308E-07
  1 17 39  1.27070517E-06
  1 17 40  1.27314815E-06
  1 17 41  1.11727311E-06
  1 17 42  9.80664854E-08
  1 18 6  7.24468385E-07
  1 18 7  1.26898492E-06
  1 18 8  1.24005320E-06
  1 18 9  1.07853729E-06
  1 18 10  1.00569666E-06
  1 18 12  2.30831933E-07
  1 18 13  1.27314815E-06
  1 18 14  1.27314815E-06
  1 18 15  1.27314815E-06
  1 18 16  3.08532811E-07
  1 18 19  1.85710539E-07
  1 18 20  2.66472481E-07
  1 18 21  3.27761851E-07
  1 18 22  4.82151223E-07
  1 18 23  5.37368078E-07
  1 18 24  6.43392146E-07
  1 18 25  6.29176374E-07
  1 18 26  7.81774656E-07
  1 18 27  7.34078111E-07
  1 18 28  1.21182507E-06
  1 18 29  6.23686836E-07
  1 18 30  3.86932462E-07
  1 18 31  2.56478396E-07
  1 18 32  6.77067269E-07
  1 18 33  9.03580596E-07
  1 18 34  9.38427659E-07
  1 18 35  1.12462043E-06
  1 18 36  1.23415331E-06
  1 18 37  1.27314815E-06
  1 18 38  1.16734176E-06
  1 18 39  1.27314815E-06
  1 18 40  1.27314815E-06
  1 18 41  1.27314815E-06
  1 18 42  1.00544737E-06
  1 18 43  6.20245400E-08
  1 19 6  2.30002007E-07
  1 19 7  1.25389059E-06
  1 19 8  1.27274709E-06
  1 19 9  7.78406034E-07
  1 19 10  1.51834236E-07
  1 19 11  8.47557567E-08
  1 19 12  1.05538369E-06
  1 19 13  1.27314815E-06
  1 19 14  1.27314815E-06
  1 19 15  1.27314815E-06
  1 19 16  8.23767397E-07
  1 19 17  4.63435165E-10
  1 19 20  3.16170609E-07
  1 19 21  2.14019640E-07
  1 19 22  4.36771040E-07
  1 19 23  8.41518487E-07
  1 19 24  7.43416271E-07
  1 19 25  6.88885517E-07
  1 19 26  4.67356846E-07
  1 19 27  7.16176482E-07
  1 19 28  1.11993154E-06
  1 19 29  1.27314815E-06
  1 19 30  1.04637021E-06
  1 19 31  9.64950563E-07
  1 19 32  9.80809037E-07
  1 19 33  1.06952762E-06
  1 19 34  1.07984543E-06
  1 19 35  6.29573477E-07
  1 19 36  1.09083632E-06
  1 19 37  1.24366354E-06
  1 19 38  1.27314815E-06
  1 19 39  1.27314815E-06
  1 19 40  1.27314815E-06
  1 19 41  1.27314815E-06
  1 19 42  1.27314815E-06
  1 19 43  6.82875487E-07
  1 20 5  5.06990706E-09
  1 20 6  9.72651185E-07
  1 20 7  1.27314815E-06
  1 20 8  1.18658316E-06
  1 20 9  4.13813827E-07
  1 20 10  2.36735350E-08
  1 20 11  9.88879726E-07
  1 20 12  5.27657349E-07
  1 20 13  9.29552178E-07
  1 20 14  1.27314815E-06
  1 20 15  1.27314815E-06
  1 20 16  3.24902755E-07
  1 20 17  2.79397680E-07
  1 20 20  1.64244553E-07
  1 20 21  2.02140127E-07
  1 20 22  3.31645281E-07
  1 20 23  5.41391688E-07
  1 20 24  2.01179525E-07
  1 20 25  6.23943966E-07
  1 20 26  1.09472752E-06
  1 20 27  1.24953016E-06
  1 20 28  1.00918171E-06
  1 20 29  8.85321782E-07
  1 20 30  8.61823867E-07
  1 20 31  8.42131135E-07
  1 20 32  5.22142992E-07
  1 20 33  6.21972689E-07
  1 20 34  8.01230969E-07
  1 20 35  5.77274707E-07
  1 20 36  5.39408853E-07
  1 20 37  9.77801197E-07
  1 20 38  1.27314815E-06
  1 20 39  1.27314815E-06
  1 20 40  1.27314815E-06
  1 20 41  1.27314815E-06
  1 20 42  1.27314815E-06
  1 20 43  6.51335698E-07
  1 21 4  2.18787809E-07
  1 21 5  8.06612669E-07
  1 21 6  1.27314815E-06
  1 21 7  1.27314815E-06
  1 21 8  1.27314815E-06
  1 21 9  1.27314815E-06
  1 21 10  9.09524335E-07
  1 21 11  5.64400870E-07
  1 21 12  4.20830438E-10
  1 21 13  5.71565370E-07
  1 21 14  1.27134018E-06
  1 21 15  1.27314815E-06
  1 21 16  5.26510770E-07
  1 21 17  1.58172502E-07
  1 21 18  3.20517207E-09
  1 21 19  4.19217745E-07
  1 21 20  4.76321350E-08
  1 21 21  5.38248593E-07
  1 21 22  2.01984200E-07
  1 21 23  5.64495229E-07
  1 21 24  6.08821670E-08
  1 21 25  1.18816083E-06
  1 21 26  1.14604628E-06
  1 21 27  5.36390607E-07
  1 21 28  2.36824138E-07
  1 21 29  4.12679329E-07
  1 21 30  3.06664614E-07
  1 21 31  5.28905937E-07
  1 21 32  7.12154689E-07
  1 21 33  3.54177863E-07
  1 21 34  2.55524190E-07
  1 21 35  5.76771372E-07
  1 21 36  6.71002878E-07
  1 21 37  1.00904723E-06
  1 21 38  8.25190427E-07
  1 21 39  9.80827127E-07
  1 21 40  1.27314815E-06
  1 21 41  1.27314815E-06
  1 21 42  1.27314815E-06
  1 21 43  4.40318704E-07
  1 22 2  6.30355772E-08
  1 22 3  7.54500345E-07
  1 22 4  1.26742818E-06
  1 22 5  1.27314815E-06
  1 22 6  1.27314815E-06
  1 22 7  1.27314815E-06
  1 22 8  1.27314815E-06
  1 22 9  1.27314815E-06
  1 22 10  9.55425413E-07
  1 22 14  6.66811218E-07
  1 22 15  1.27314815E-06
  1 22 16  1.05412575E-06
  1 22 17  1.23241543E-08
  1 22 19  1.12049801E-06
  1 22 20  5.18717327E-07
  1 22 21  4.91879107E-07
  1 22 22  4.84892026E-07
  1 22 23  7.36133313E-07
  1 22 24  4.71073901E-07
  1 22 25  5.56188418E-07
  1 22 26  1.27314815E-06
  1 22 27  1.06602728E-06
  1 22 28  3.13003225E-07
  1 22 29  6.59266725E-08
  1 22 30  1.48476769E-07
  1 22 31  9.28644307E-08
  1 22 32  2.07853835E-07
  1 22 34  7.58822374E-08
  1 22 35  1.23302985E-06
  1 22 36  1.19845436E-06
  1 22 37  1.23303327E-06
  1 22 38  1.10396262E-06
  1 22 39  1.24851545E-06
  1 22 40  1.27314815E-06
  1 22 41  1.27314815E-06
  1 22 42  1.27314815E-06
  1 22 43  4.43544754E-07
  1 23 2  1.14026773E-07
  1 23 3  1.12175171E-06
  1 23 4  1.27314815E-06
  1 23 5  1.27314815E-06
  1 23 6  1.27314815E-06
  1 23 7  1.27314815E-06
  1 23 8  1.27314815E-06
  1 23 9  1.27314815E-06
  1 23 10  1.25412148E-06
  1 23 11  5.07935121E-07
  1 23 12  7.33698609E-07
  1 23 13  6.33236472E-08
  1 23 14  8.75937585E-09
  1 23 15  4.03754445E-07
  1 23 16  1.58123039E-07
  1 23 17  1.32543156E-07
  1 23 18  2.40922813E-07
  1 23 19  4.41042836E-07
  1 23 20  9.05866950E-07
  1 23 21  5.11552721E-07
  1 23 22  3.53140449E-07
  1 23 23  5.88338577E-07
  1 23 24  9.54053313E-07
  1 23 25  1.09758989E-06
  1 23 26  1.27314815E-06
  1 23 27  1.26555372E-06
  1 23 28  1.20041695E-06
  1 23 29  4.95766287E-07
  1 23 30  2.45344100E-07
  1 23 31  1.61290558E-07
  1 23 32  2.39954809E-07
  1 23 33  5.36989066E-07
  1 23 34  4.89822289E-07
  1 23 35  8.79805307E-07
  1 23 36  9.76838431E-07
  1 23 37  1.20082754E-06
  1 23 38  9.55485344E-07
  1 23 39  1.23438399E-06
  1 23 40  1.27314815E-06
  1 23 41  1.27314815E-06
  1 23 42  1.27314815E-06
  1 23 43  2.27930972E-07
  1 24 3  2.62585510E-07
  1 24 4  1.27314815E-06
  1 24 5  1.27314815E-06
  1 24 6  1.27314815E-06
  1 24 7  1.27314815E-06
  1 24 8  1.27314815E-06
  1 24 9  1.27314815E-06
  1 24 10  1.27314815E-06
  1 24 11  1.27314815E-06
  1 24 12  1.03656923E-06
  1 24 13  1.15716618E-07
  1 24 14  3.75904549E-07
  1 24 15  2.66585605E-07
  1 24 16  6.80729379E-07
  1 24 17  1.55119684E-07
  1 24 18  1.04551721E-06
  1 24 19  3.87593012E-07
  1 24 20  6.13562186E-07
  1 24 21  1.06474558E-06
  1 24 22  5.55328290E-07
  1 24 23  9.09362159E-08
  1 24 24  5.97704344E-07
  1 24 25  6.61997302E-07
  1 24 26  1.26459382E-06
  1 24 27  1.24785331E-06
  1 24 28  1.06545705E-06
  1 24 29  1.01334693E-06
  1 24 30  9.41896015E-07
  1 24 31  9.28293724E-07
  1 24 32  8.71194207E-07
  1 24 33  5.78702460E-07
  1 24 34  6.06853416E-08
  1 24 35  5.72270222E-07
  1 24 36  4.87439185E-07
  1 24 37  7.96480012E-07
  1 24 38  1.16193813E-06
  1 24 39  7.59897234E-07
  1 24 40  1.27314815E-06
  1 24 41  1.27314815E-06
  1 24 42  1.23501062E-06
  1 24 43  1.78635707E-08
  1 25 3  1.95851358E-09
  1 25 4  1.10167128E-06
  1 25 5  1.27314815E-06
  1 25 6  1.27314815E-06
  1 25 7  1.27314815E-06
  1 25 8  1.27314815E-06
  1 25 9  1.27314815E-06
  1 25 10  1.27314815E-06
  1 25 11  1.18007836E-06
  1 25 12  2.19879697E-07
  1 25 13  1.12181566E-06
  1 25 14  1.27314815E-06
  1 25 15  1.27314815E-06
  1 25 16  1.27314815E-06
  1 25 17  6.39542822E-07
  1 25 18  6.62837947E-07
  1 25 19  8.30263956E-07
  1 25 20  6.46163777E-07
  1 25 21  9.36609813E-07
  1 25 22  7.20219009E-07
  1 25 23  1.53346998E-07
  1 25 24  8.75341376E-07
  1 25 25  1.79687488E-07
  1 25 26  1.21179865E-06
  1 25 27  1.27314815E-06
  1 25 28  6.79270256E-07
  1 25 29  3.03586401E-07
  1 25 30  1.76176173E-07
  1 25 31  2.08598381E-07
  1 25 32  5.87095651E-07
  1 25 33  2.05654440E-07
  1 25 34  1.41552839E-07
  1 25 35  1.64996875E-07
  1 25 36  1.62639821E-07
  1 25 37  8.23732665E-07
  1 25 38  1.18120257E-06
  1 25 39  8.88098470E-07
  1 25 40  1.27314815E-06
  1 25 41  1.27314815E-06
  1 25 42  1.03965391E-06
  1 26 4  2.79791727E-07
  1 26 5  1.11608544E-06
  1 26 6  1.27314815E-06
  1 26 7  1.27314815E-06
  1 26 8  1.27314815E-06
  1 26 9  1.27314815E-06
  1 26 10  1.27314815E-06
  1 26 11  1.01463321E-06
  1 26 12  6.94586603E-07
  1 26 13  1.27314815E-06
  1 26 14  1.27314815E-06
  1 26 15  1.27314815E-06
  1 26 16  1.27314815E-06
  1 26 17  1.13658358E-06
  1 26 18  7.33788325E-08
  1 26 19  3.37133957E-07
  1 26 20  5.46339222E-07
  1 26 21  4.36499413E-07
  1 26 22  8.14513370E-07
  1 26 23  6.86074987E-07
  1 26 24  9.73254440E-07
  1 26 25  1.05441781E-06
  1 26 26  1.26918449E-06
  1 26 27  1.27314815E-06
  1 26 28  4.70337738E-07
  1 26 29  2.49018264E-07
  1 26 31  3.14580629E-07
  1 26 32  2.77596640E-09
  1 26 34  9.99294028E-09
  1 26 35  2.56888399E-07
  1 26 36  7.66562278E-08
  1 26 37  1.01378050E-08
  1 26 38  3.67712467E-07
  1 26 39  7.02443295E-07
  1 26 40  1.27197613E-06
  1 26 41  1.27314815E-06
  1 26 42  8.04069614E-07
  1 27 5  2.18390550E-07
  1 27 6  1.27314815E-06
  1 27 7  1.27314815E-06
  1 27 8  1.27314815E-06
  1 27 9  1.27314815E-06
  1 27 10  1.27314815E-06
  1 27 11  1.27314815E-06
  1 27 12  1.27305080E-06
  1 27 13  1.27314815E-06
  1 27 14  1.27314815E-06
  1 27 15  1.27314815E-06
  1 27 16  1.27314815E-06
  1 27 17  1.27314815E-06
  1 27 18  5.31154594E-07
  1 27 19  5.52344624E-07
  1 27 20  5.50604741E-07
  1 27 21  2.50701768E-07
  1 27 22  6.26066567E-07
  1 27 23  2.79269296E-07
  1 27 24  6.04937375E-07
  1 27 25  1.24538010E-06
  1 27 26  1.27314815E-06
  1 27 27  1.27314815E-06
  1 27 28  1.06451239E-06
  1 27 29  5.79255932E-07
  1 27 30  1.37955328E-07
  1 27 31  4.23657138E-08
  1 27 32  6.10990604E-08
  1 27 33  2.27154901E-07
  1 27 34  3.41721632E-07
  1 27 35  2.66843513E-07
  1 27 37  1.16174445E-07
  1 27 38  3.17693088E-07
  1 27 39  3.48557979E-07
  1 27 40  1.25814417E-06
  1 27 41  1.27314815E-06
  1 27 42  4.33742005E-07
  1 28 5  1.01441009E-07
  1 28 6  1.12704625E-06
  1 28 7  1.27314815E-06
  1 28 8  1.27314815E-06
  1 28 9  1.27314815E-06
  1 28 10  1.27314815E-06
  1 28 11  1.27314815E-06
  1 28 12  1.27314815E-06
  1 28 13  1.27314815E-06
  1 28 14  1.27314815E-06
  1 28 15  1.27314815E-06
  1 28 16  1.22310455E-06
  1 28 17  1.21155029E-06
  1 28 18  1.27053519E-06
  1 28 19  1.21925928E-06
  1 28 20  7.17490374E-07
  1 28 21  8.65470069E-07
  1 28 22  1.25047205E-06
  1 28 23  1.04122365E-06
  1 28 24  6.29894748E-07
  1 28 25  1.20194262E-06
  1 28 26  1.27314815E-06
  1 28 27  1.27314815E-06
  1 28 28  1.27314815E-06
  1 28 29  7.51077503E-07
  1 28 30  5.11010054E-07
  1 28 31  3.99210301E-07
  1 28 32  2.08454608E-07
  1 28 33  2.05889347E-07
  1 28 34  8.29755040E-08
  1 28 35  2.24800893E-07
  1 28 36  6.73730430E-08
  1 28 37  2.28875897E-07
  1 28 38  4.59681786E-07
  1 28 39  6.45325219E-07
  1 28 40  1.27017459E-06
  1 28 41  1.27314815E-06
  1 28 42  2.76465718E-07
  1 29 6  7.03234815E-09
  1 29 7  2.78467607E-07
  1 29 8  8.55475710E-07
  1 29 9  1.27314815E-06
  1 29 10  1.27314815E-06
  1 29 11  1.27314815E-06
  1 29 12  1.27314815E-06
  1 29 13  1.27314815E-06
  1 29 14  1.27314815E-06
  1 29 15  1.27314815E-06
  1 29 16  3.69520910E-07
  1 29 17  8.95823221E-07
  1 29 18  6.27315281E-07
  1 29 19  1.10498916E-06
  1 29 20  9.24512602E-07
  1 29 21  6.67393645E-07
  1 29 22  1.05123487E-06
  1 29 23  1.13305569E-06
  1 29 24  1.17966301E-06
  1 29 25  1.15217748E-06
  1 29 26  5.11755967E-07
  1 29 27  6.19424381E-07
  1 29 28  1.23343945E-06
  1 29 29  1.19665620E-06
  1 29 30  3.41040337E-07
  1 29 31  4.87420645E-08
  1 29 32  5.52945803E-07
  1 29 33  2.33530856E-07
  1 29 34  2.08232205E-08
  1 29 36  1.84212468E-07
  1 29 37  3.74677724E-07
  1 29 38  4.73871901E-07
  1 29 39  1.12110078E-06
  1 29 40  1.25780656E-06
  1 29 41  1.27314815E-06
  1 29 42  5.27535193E-07
  1 30 8  6.94839797E-08
  1 30 9  1.26927813E-06
  1 30 10  1.27314815E-06
  1 30 11  1.27314815E-06
  1 30 12  1.27314815E-06
  1 30 13  1.27314815E-06
  1 30 14  1.27314815E-06
  1 30 15  1.27314815E-06
  1 30 16  6.76602251E-07
  1 30 17  9.81793596E-08
  1 30 18  4.25800325E-07
  1 30 19  1.79587602E-07
  1 30 20  3.74582543E-07
  1 30 21  7.14604823E-07
  1 30 22  4.74883089E-07
  1 30 23  5.95668838E-07
  1 30 24  3.52941146E-07
  1 30 25  1.72553794E-07
  1 30 26  1.03564309E-07
  1 30 27  3.75074955E-08
  1 30 28  2.39454793E-07
  1 30 29  8.35733239E-07
  1 30 30  6.95625380E-07
  1 30 31  8.06338097E-08
  1 30 32  1.57717129E-07
  1 30 33  1.76486764E-07
  1 30 34  1.93835596E-07
  1 30 35  1.36735032E-09
  1 30 36  1.36483225E-07
  1 30 37  1.00458353E-07
  1 30 38  8.03429879E-07
  1 30 39  1.02553439E-06
  1 30 40  1.24623411E-06
  1 30 41  1.27314815E-06
  1 30 42  1.24982922E-06
  1 30 43  3.78797390E-07
  1 31 9  4.85173566E-07
  1 31 10  1.18801219E-06
  1 31 11  1.27314815E-06
  1 31 12  1.27314815E-06
  1 31 13  1.27314815E-06
  1 31 14  1.27314815E-06
  1 31 15  1.27314815E-06
  1 31 16  4.81464241E-07
  1 31 17  3.50470439E-08
  1 31 18  2.56016321E-07
  1 31 19  5.90665660E-08
  1 31 20  4.02087902E-07
  1 31 21  6.33483364E-07
  1 31 22  5.06112667E-07
  1 31 23  6.69014304E-08
  1 31 24  7.07901825E-08
  1 31 25  4.62402136E-08
  1 31 26  1.01802268E-07
  1 31 27  1.85927107E-07
  1 31 28  1.95243642E-07
  1 31 29  3.02683891E-07
  1 31 30  3.55560743E-07
  1 31 31  2.03589552E-07
  1 31 32  4.01608526E-07
  1 31 33  2.71365390E-07
  1 31 34  7.04041052E-08
  1 31 35  4.19194070E-07
  1 31 36  2.46657727E-07
  1 31 37  2.25191484E-07
  1 31 38  9.18584616E-07
  1 31 39  1.25790974E-06
  1 31 40  9.89947005E-07
  1 31 41  1.22804620E-06
  1 31 42  1.26609638E-06
  1 31 43  5.05867577E-07
  1 32 10  6.02235172E-08
  1 32 11  4.26218638E-07
  1 32 12  1.27314815E-06
  1 32 13  1.27314815E-06
  1 32 14  1.27314815E-06
  1 32 15  1.27314815E-06
  1 32 16  2.81984808E-07
  1 32 18  3.26601847E-08
  1 32 19  2.43247730E-07
  1 32 20  5.74814279E-07
  1 32 21  7.14264127E-07
  1 32 22  8.14583116E-07
  1 32 23  5.68814406E-07
  1 32 24  3.62427887E-07
  1 32 25  2.22541877E-07
  1 32 26  8.68072569E-08
  1 32 27  5.32411663E-07
  1 32 28  3.46292011E-07
  1 32 29  3.86441084E-07
  1 32 30  2.60759325E-07
  1 32 31  4.74198377E-07
  1 32 32  4.90504578E-07
  1 32 33  4.31808178E-07
  1 32 34  3.96899990E-07
  1 32 35  8.08331071E-07
  1 32 36  2.69936535E-07
  1 32 37  5.06675514E-07
  1 32 38  9.16658388E-07
  1 32 39  1.03120158E-06
  1 32 40  6.73758679E-07
  1 32 41  9.97050602E-07
  1 32 42  1.11928964E-06
  1 33 11  2.41187024E-09
  1 33 12  4.97546042E-07
  1 33 13  9.47995686E-07
  1 33 14  1.25154855E-06
  1 33 15  1.27314815E-06
  1 33 16  7.48146714E-07
  1 33 17  3.42601385E-08
  1 33 19  1.85993781E-07
  1 33 20  3.21422018E-07
  1 33 21  6.04091021E-07
  1 33 22  7.83063509E-07
  1 33 23  9.49325892E-07
  1 33 24  9.66850609E-07
  1 33 25  9.93984186E-07
  1 33 26  1.00596778E-06
  1 33 27  7.95842933E-07
  1 33 28  1.02383424E-06
  1 33 29  9.06223960E-07
  1 33 30  5.91646048E-07
  1 33 31  6.92367179E-07
  1 33 32  3.36897469E-07
  1 33 33  1.94049269E-07
  1 33 34  2.62299939E-07
  1 33 35  7.22189583E-08
  1 33 36  1.72108619E-07
  1 33 37  1.40841200E-08
  1 33 38  2.14533042E-07
  1 33 39  1.46523378E-07
  1 33 40  1.48308837E-07
  1 33 41  8.13836370E-08
  1 33 42  6.82188571E-09
  1 34 14  1.10779819E-07
  1 34 15  9.56297713E-07
  1 34 16  1.27314815E-06
  1 34 17  2.57176102E-07
  1 34 19  8.18821603E-08
  1 34 20  5.35858766E-08
  1 34 21  2.72616059E-08
  1 34 22  1.76035912E-09
  1 34 23  1.83132225E-08
  1 34 24  1.77875440E-08
  1 34 25  6.43294812E-09
  1 34 26  3.63493547E-08
  1 34 27  6.12826679E-08
  1 34 28  2.82364571E-07
  1 34 29  1.71017524E-07
  1 34 30  1.42805625E-09
  1 34 31  1.24764480E-08
  1 34 32  5.01508125E-10
  1 35 15  1.68015319E-07
  1 35 16  1.04742407E-06
  1 35 17  5.16232474E-07
  1 35 20  7.42297183E-09
END period  1

