# File generated by Flopy version 3.3.2 on 06/08/2021 at 13:55:56.
BEGIN options
  COMPLEXITY  complex
END options

