# File generated by Flopy version 3.3.2 on 08/10/2021 at 22:32:43.
BEGIN options
  AUXMULTNAME  rain_mult
  PRINT_INPUT
  PRINT_FLOWS
  SAVE_FLOWS
  TS6  FILEIN  modelo_Norte_4.ghb.ts
END options

BEGIN dimensions
  MAXBOUND  12
END dimensions

BEGIN period  1
    OPEN/CLOSE  'ghb_4.txt'
END period  1

BEGIN period  2
    OPEN/CLOSE  'ghb_tr_4.txt'
END period  2

