# File generated by Flopy version 3.3.4 on 11/28/2021 at 15:02:43.
BEGIN options
  COMPLEXITY  complex
END options

