# File generated by Flopy version 3.3.2 on 05/28/2021 at 22:47:30.
BEGIN options
  PRINT_INPUT
  PRINT_FLOWS
  SAVE_FLOWS
END options

BEGIN dimensions
  MAXBOUND  136
END dimensions

BEGIN period  1
  1 2 8     627.00000000
  1 2 9     627.00000000
  1 3 8     617.44909668
  1 3 9     609.00000000
  1 3 10     611.00000000
  1 3 11     612.41168213
  1 3 12     613.00000000
  1 3 13     613.00000000
  1 3 14     615.07159424
  1 3 15     617.00000000
  1 3 16     663.17846680
  1 4 7     637.00000000
  1 4 8     609.00000000
  1 4 10     612.26983643
  1 4 11     613.44769287
  1 4 16     623.36090088
  1 5 7     624.00000000
  1 5 8     609.00000000
  1 5 16     620.57586670
  1 6 7     621.00000000
  1 6 8     609.00000000
  1 6 16     621.00000000
  1 7 8     609.00000000
  1 7 16     628.24291992
  1 7 17     641.86810303
  1 8 8     609.00000000
  1 8 16     643.34307861
  1 8 17     629.00000000
  1 8 18     646.44110107
  1 9 8     609.00000000
  1 9 18     627.00000000
  1 10 7     624.00000000
  1 10 8     610.50122070
  1 10 18     633.00000000
  1 10 21     642.19995117
  1 10 22     645.65740967
  1 10 23     653.00000000
  1 11 7     624.00000000
  1 11 8     611.00000000
  1 11 18     640.26580811
  1 11 19     633.41766357
  1 11 20     633.00000000
  1 11 21     638.58666992
  1 11 23     640.03942871
  1 11 24     645.04223633
  1 12 7     621.00000000
  1 12 8     613.00000000
  1 12 24     648.63659668
  1 12 25     642.24462891
  1 12 26     658.98150635
  1 13 7     625.00000000
  1 13 8     613.26123047
  1 13 25     643.57891846
  1 13 26     650.79553223
  1 14 7     613.26202393
  1 14 8     614.33135986
  1 14 25     645.76843262
  1 14 26     649.00000000
  1 14 27     651.05395508
  1 14 28     653.59802246
  1 15 7     614.33135986
  1 15 8     632.04339600
  1 15 27     652.65521240
  1 15 28     652.83502197
  1 15 29     650.84893799
  1 15 30     649.09307861
  1 15 31     651.00000000
  1 15 32     651.86822510
  1 15 33     653.00000000
  1 15 34     653.00000000
  1 15 35     653.00000000
  1 15 36     655.00000000
  1 15 37     659.46496582
  1 15 39     664.28875732
  1 15 40     669.70483398
  1 15 41     713.00000000
  1 16 5     631.00000000
  1 16 6     615.00000000
  1 16 7     615.00000000
  1 16 36     704.76940918
  1 16 37     680.77258301
  1 16 38     659.50122070
  1 16 39     656.33398438
  1 16 40     664.42529297
  1 16 41     661.00000000
  1 17 3     629.00000000
  1 17 4     630.00000000
  1 17 5     617.00000000
  1 17 6     617.81640625
  1 17 41     670.97192383
  1 17 42     668.23339844
  1 18 2     634.00000000
  1 18 3     616.83697510
  1 18 4     621.00000000
  1 18 42     668.32763672
  1 18 43     672.73767090
  1 19 1     636.00000000
  1 19 2     621.00000000
  1 19 43     669.13092041
  1 20 1     618.15228271
  1 20 2     624.32110596
  1 21 1     623.16436768
  1 32 41     970.88415527
  1 32 42     947.53015137
  1 32 43     976.62890625
  1 32 44     981.26110840
  1 33 30     912.58471680
  1 33 31     911.78369141
  1 33 32     923.53015137
  1 33 33     930.17462158
  1 33 34     923.51507568
  1 33 35     930.66503906
  1 33 36     943.51208496
  1 33 37     963.26806641
  1 33 38     972.63128662
  1 33 39     975.53265381
  1 33 40     979.45568848
  1 33 41     984.06658936
  1 33 42     987.17633057
  1 34 21     932.40313721
  1 34 22     936.53326416
  1 34 23     940.00000000
  1 34 24     943.10375977
  1 34 25     945.79632568
  1 34 26     947.79986572
  1 34 27     950.57568359
  1 34 28     952.38500977
  1 34 29     953.88574219
  1 34 30     957.08740234
  1 34 31     958.79327393
  1 34 32     961.22882080
  1 34 33     962.82171631
  1 35 19     927.46704102
  1 35 20     930.73571777
  1 35 21     933.93835449
  1 35 22     939.03143311
END period  1

