# File generated by Flopy version 3.3.4 on 10/06/2021 at 14:47:56.
BEGIN options
  COMPLEXITY  complex
END options

