# File generated by Flopy version 3.3.4 on 08/28/2021 at 11:37:41.
BEGIN options
  COMPLEXITY  complex
END options

