# File generated by Flopy version 3.3.4 on 06/25/2022 at 19:42:23.
BEGIN options
  PRINT_FLOWS
  SAVE_FLOWS
END options

BEGIN dimensions
  MAXBOUND  407
END dimensions

BEGIN period  1
  1 1 10     625.00000000
  1 2 9     644.00000000
  1 2 10     623.00000000
  1 2 11     622.00000000
  1 3 9     641.00000000
  1 3 10     629.00000000
  1 3 11     609.00000000
  1 3 12     610.97656250
  1 3 13     611.45965576
  1 3 14     611.82751465
  1 3 15     613.00000000
  1 3 16     613.00000000
  1 3 17     615.00000000
  1 3 18     617.00000000
  1 3 19     618.06634521
  1 4 9     624.00000000
  1 4 10     614.79974365
  1 4 12     613.39758301
  1 4 13     611.43212891
  1 4 14     614.39251709
  1 4 19     625.43609619
  1 4 20     634.03906250
  1 5 9     620.00000000
  1 5 20     622.78814697
  1 6 9     621.00000000
  1 6 10     611.00000000
  1 6 20     619.59130859
  1 7 9     620.00000000
  1 7 10     609.00000000
  1 7 20     621.00000000
  1 8 10     609.00000000
  1 8 20     623.83062744
  1 8 21     632.45806885
  1 9 10     609.00000000
  1 9 20     639.75708008
  1 9 21     627.17437744
  1 9 22     637.02410889
  1 10 10     609.00000000
  1 10 22     628.63116455
  1 10 23     645.00000000
  1 11 9     625.00000000
  1 11 10     609.57128906
  1 11 22     629.42303467
  1 11 23     635.06927490
  1 12 9     610.61181641
  1 12 10     611.00000000
  1 12 22     629.00000000
  1 12 23     633.02258301
  1 12 24     634.51831055
  1 12 25     637.91284180
  1 12 26     638.87683105
  1 12 27     639.00000000
  1 12 28     639.00000000
  1 12 29     643.04193115
  1 13 9     610.98291016
  1 13 10     611.00000000
  1 13 23     636.23864746
  1 13 24     635.68511963
  1 13 25     634.21075439
  1 13 26     639.15325928
  1 13 29     641.52117920
  1 13 30     639.00000000
  1 13 31     642.60577393
  1 13 32     645.02722168
  1 13 33     645.92309570
  1 13 34     646.83007812
  1 14 9     611.54595947
  1 14 10     613.00000000
  1 14 32     647.93707275
  1 14 33     647.42462158
  1 14 34     647.00000000
  1 14 35     641.42224121
  1 14 36     641.42224121
  1 14 37     641.42224121
  1 14 38     641.42224121
  1 14 39     641.00000000
  1 14 40     641.00000000
  1 14 41     641.00000000
  1 14 42     641.00000000
  1 14 43     641.00000000
  1 14 44     641.00000000
  1 14 45     641.00000000
  1 14 46     641.00000000
  1 14 47     641.00000000
  1 14 48     641.00000000
  1 14 49     641.00000000
  1 14 50     641.00000000
  1 14 51     641.00000000
  1 15 9     612.43395996
  1 15 10     613.11346436
  1 15 50     643.00000000
  1 15 51     643.00000000
  1 15 52     648.69476318
  1 15 53     648.69476318
  1 16 9     613.00000000
  1 16 10     614.12884521
  1 16 40     645.00000000
  1 16 41     645.00000000
  1 16 42     645.00000000
  1 16 43     645.00000000
  1 16 44     645.00000000
  1 16 45     645.00000000
  1 16 46     645.00000000
  1 16 47     645.00000000
  1 16 48     645.00000000
  1 16 49     645.00000000
  1 16 50     645.00000000
  1 16 51     645.00000000
  1 16 52     647.20782471
  1 16 53     647.20782471
  1 17 9     613.91595459
  1 17 10     632.66973877
  1 17 40     649.25384521
  1 17 41     649.25384521
  1 17 42     649.25384521
  1 17 43     649.25384521
  1 17 44     647.92608643
  1 17 45     647.92608643
  1 17 46     647.92608643
  1 17 47     647.92608643
  1 17 48     647.00000000
  1 17 49     647.00000000
  1 17 50     647.00000000
  1 17 51     647.00000000
  1 17 52     647.00000000
  1 17 53     647.00000000
  1 17 54     647.00000000
  1 17 55     647.00000000
  1 17 56     647.00000000
  1 17 57     647.00000000
  1 17 58     647.00000000
  1 17 59     647.00000000
  1 17 60     647.00000000
  1 17 61     647.00000000
  1 17 62     647.00000000
  1 17 63     647.00000000
  1 17 64     647.00000000
  1 17 65     647.00000000
  1 17 66     647.00000000
  1 17 67     647.00000000
  1 17 68     647.00000000
  1 17 69     647.00000000
  1 17 70     647.00000000
  1 17 71     647.00000000
  1 17 72     647.00000000
  1 17 73     647.00000000
  1 17 74     647.00000000
  1 17 75     647.00000000
  1 17 76     647.00000000
  1 17 77     647.25659180
  1 17 78     647.25659180
  1 17 79     647.25659180
  1 17 80     647.25659180
  1 17 81     647.56457520
  1 17 82     647.56457520
  1 17 83     647.56457520
  1 17 84     647.56457520
  1 17 85     648.65380859
  1 17 86     648.65380859
  1 17 87     648.65380859
  1 17 88     648.65380859
  1 17 89     649.00000000
  1 17 90     649.00000000
  1 17 91     649.00000000
  1 17 92     649.00000000
  1 17 93     649.00000000
  1 17 94     649.32580566
  1 17 95     649.32580566
  1 17 96     649.32580566
  1 17 97     649.32580566
  1 17 98     649.94512939
  1 17 99     649.94512939
  1 17 100     649.94512939
  1 17 101     649.94512939
  1 17 102     650.59112549
  1 18 8     614.27069092
  1 18 9     614.61682129
  1 18 10     632.89691162
  1 18 86     654.44934082
  1 18 87     654.44934082
  1 18 88     654.44934082
  1 18 89     654.18066406
  1 18 90     654.18066406
  1 18 91     654.18066406
  1 18 92     654.18066406
  1 18 93     654.18066406
  1 18 94     653.88116455
  1 18 95     653.88116455
  1 18 96     653.88116455
  1 18 97     653.88116455
  1 18 98     653.98333740
  1 18 99     653.98333740
  1 18 100     653.98333740
  1 18 101     653.98333740
  1 18 102     654.04071045
  1 18 103     654.04071045
  1 18 104     654.04071045
  1 18 105     654.04071045
  1 18 106     654.03802490
  1 18 107     654.03802490
  1 18 108     654.03802490
  1 18 109     654.03802490
  1 18 110     654.25360107
  1 18 111     654.25360107
  1 18 112     654.25360107
  1 18 113     654.25360107
  1 18 114     655.00000000
  1 18 115     655.00000000
  1 18 116     655.00000000
  1 18 117     655.00000000
  1 18 118     655.00000000
  1 18 119     655.24597168
  1 18 120     655.24597168
  1 18 121     655.24597168
  1 18 122     655.24597168
  1 18 123     655.37841797
  1 18 124     655.37841797
  1 18 125     655.37841797
  1 18 126     655.37841797
  1 18 127     655.96441650
  1 18 128     655.96441650
  1 18 129     655.96441650
  1 18 130     655.96441650
  1 18 131     657.00000000
  1 18 132     657.00000000
  1 18 133     657.00000000
  1 18 134     657.00000000
  1 18 135     657.22241211
  1 18 136     657.22241211
  1 18 137     657.22241211
  1 18 138     657.22241211
  1 18 139     657.51489258
  1 18 140     657.51489258
  1 18 141     657.51489258
  1 18 142     657.51489258
  1 18 143     657.51489258
  1 18 144     657.42382812
  1 18 145     657.42382812
  1 18 146     657.42382812
  1 18 147     657.42382812
  1 18 148     656.99707031
  1 18 149     656.99707031
  1 18 150     656.99707031
  1 18 151     656.99707031
  1 18 152     655.33508301
  1 18 153     655.33508301
  1 18 154     655.33508301
  1 18 155     655.33508301
  1 18 156     654.10852051
  1 18 157     654.10852051
  1 18 158     654.10852051
  1 18 159     654.10852051
  1 18 160     654.58239746
  1 18 161     654.58239746
  1 18 162     654.58239746
  1 18 163     654.58239746
  1 18 164     654.31024170
  1 18 165     654.31024170
  1 18 166     654.31024170
  1 18 167     654.31024170
  1 18 168     654.31024170
  1 18 169     654.04229736
  1 18 170     654.04229736
  1 18 171     654.04229736
  1 18 172     654.04229736
  1 18 173     653.08312988
  1 18 174     653.08312988
  1 18 175     653.08312988
  1 18 176     653.08312988
  1 18 177     653.00000000
  1 18 178     653.00000000
  1 18 179     653.00000000
  1 18 180     653.00000000
  1 18 181     653.00000000
  1 18 182     653.00000000
  1 18 183     653.00000000
  1 18 184     653.00000000
  1 18 185     653.00000000
  1 18 186     653.00000000
  1 18 187     653.00000000
  1 18 188     653.00000000
  1 18 189     653.00000000
  1 18 190     653.00000000
  1 18 191     653.00000000
  1 18 192     653.00000000
  1 18 193     653.00000000
  1 18 194     653.41943359
  1 18 195     653.41943359
  1 18 196     653.41943359
  1 18 197     653.41943359
  1 18 198     653.45660400
  1 18 199     653.45660400
  1 18 200     653.45660400
  1 18 201     653.45660400
  1 18 202     653.33941650
  1 18 203     653.33941650
  1 18 204     653.33941650
  1 18 205     653.33941650
  1 18 206     653.20086670
  1 18 207     653.20086670
  1 18 208     653.20086670
  1 18 209     653.20086670
  1 18 210     653.17883301
  1 18 211     653.17883301
  1 18 212     653.17883301
  1 18 213     653.17883301
  1 18 214     653.71545410
  1 18 215     653.71545410
  1 18 216     653.71545410
  1 18 217     653.71545410
  1 18 218     653.71545410
  1 18 219     654.86999512
  1 18 220     654.86999512
  1 18 221     654.86999512
  1 18 222     654.86999512
  1 18 223     655.00000000
  1 18 224     655.00000000
  1 18 225     655.00000000
  1 18 226     655.00000000
  1 18 227     655.00000000
  1 18 228     655.00000000
  1 18 229     655.00000000
  1 18 230     655.00000000
  1 18 231     655.50207520
  1 18 232     655.50207520
  1 18 233     655.50207520
  1 18 234     655.50207520
  1 18 235     656.96160889
  1 18 236     656.96160889
  1 18 237     656.96160889
  1 18 238     656.96160889
  1 18 239     659.27459717
  1 18 240     659.27459717
  1 18 241     659.27459717
  1 18 242     659.27459717
  1 18 243     659.27459717
  1 18 244     659.61737061
  1 18 245     659.61737061
  1 18 246     659.61737061
  1 18 247     659.61737061
  1 18 248     659.96655273
  1 18 249     659.96655273
  1 18 263     664.31518555
  1 18 264     664.87774658
  1 18 265     670.94964600
  1 19 6     630.00000000
  1 19 7     614.89147949
  1 19 8     615.00000000
  1 19 9     636.83923340
  1 19 233     688.21545410
  1 19 234     688.21545410
  1 19 235     684.36193848
  1 19 236     684.36193848
  1 19 237     684.36193848
  1 19 238     684.36193848
  1 19 239     669.56420898
  1 19 240     669.56420898
  1 19 241     669.56420898
  1 19 242     669.56420898
  1 19 243     669.56420898
  1 19 244     664.61608887
  1 19 245     664.61608887
  1 19 246     664.61608887
  1 19 247     664.61608887
  1 19 248     657.15728760
  1 19 249     657.15728760
  1 19 250     657.15728760
  1 19 251     657.15728760
  1 19 252     655.00000000
  1 19 253     655.00000000
  1 19 254     655.00000000
  1 19 255     655.00000000
  1 19 256     655.00000000
  1 19 257     655.00000000
  1 19 258     655.00000000
  1 19 259     655.00000000
  1 19 260     655.00000000
  1 19 261     655.00000000
  1 19 262     655.60534668
  1 19 263     656.82891846
  1 19 264     659.90820312
  1 19 265     663.53833008
  1 19 266     666.26513672
  1 20 5     631.00000000
  1 20 6     615.81835938
  1 20 7     615.60852051
  1 20 8     625.35876465
  1 20 266     665.55377197
  1 20 267     669.50097656
  1 21 3     627.00000000
  1 21 4     630.00000000
  1 21 5     617.63098145
  1 21 267     665.00000000
  1 22 2     637.00000000
  1 22 3     616.90844727
  1 22 4     621.00000000
  1 22 267     678.96069336
  1 22 268     665.00000000
  1 22 269     674.83636475
  1 23 2     617.00000000
  1 23 3     623.00000000
  1 23 268     672.47930908
  1 23 269     665.00000000
  1 24 1     635.00000000
  1 24 2     624.60498047
  1 25 1     621.96197510
  1 26 1     623.00000000
END period  1

