# File generated by Flopy version 3.3.4 on 08/28/2021 at 11:37:42.
BEGIN options
  PRINT_INPUT
  PRINT_FLOWS
  SAVE_FLOWS
END options

BEGIN dimensions
  MAXBOUND  13
END dimensions

BEGIN period  1135
END period  1135

BEGIN period  1146
  1 39 45     778.88098145  7.50205104E-06
END period  1146

BEGIN period  1160
  1 39 45     778.88098145  7.50205104E-06
  1 38 48     773.38299561  7.50205104E-06
END period  1160

BEGIN period  1175
  1 39 45     778.88098145  7.50205104E-06
  1 38 48     773.38299561  7.50205104E-06
  1 38 50     779.62402344  7.50205104E-06
END period  1175

BEGIN period  1192
  1 39 45     778.88098145  7.50205104E-06
  1 38 48     773.38299561  7.50205104E-06
  1 38 50     779.62402344  7.50205104E-06
  1 38 52     791.20300293  7.50205104E-06
  2 38 52     764.92349243  7.50205104E-06
END period  1192

BEGIN period  1210
  1 39 45     778.88098145  7.50205104E-06
  1 38 48     773.38299561  7.50205104E-06
  1 38 50     779.62402344  7.50205104E-06
  1 38 52     791.20300293  7.50205104E-06
  2 38 52     764.92349243  7.50205104E-06
  1 38 53     796.49597168  7.50205104E-06
  2 38 53     773.32550049  7.50205104E-06
END period  1210

BEGIN period  1230
  1 39 45     778.88098145  7.50205104E-06
  1 38 48     773.38299561  7.50205104E-06
  1 38 50     779.62402344  7.50205104E-06
  1 38 52     791.20300293  7.50205104E-06
  2 38 52     764.92349243  7.50205104E-06
  1 38 53     796.49597168  7.50205104E-06
  2 38 53     773.32550049  7.50205104E-06
  1 38 54     802.14501953  7.50205104E-06
  2 38 54     796.23150635  7.50205104E-06
  3 38 54     790.31799316  7.50205104E-06
END period  1230

BEGIN period  1251
  1 39 45     778.88098145  7.50205104E-06
  1 38 48     773.38299561  7.50205104E-06
  1 38 50     779.62402344  7.50205104E-06
  1 38 52     791.20300293  7.50205104E-06
  2 38 52     764.92349243  7.50205104E-06
  1 38 53     796.49597168  7.50205104E-06
  2 38 53     773.32550049  7.50205104E-06
  1 38 54     802.14501953  7.50205104E-06
  2 38 54     796.23150635  7.50205104E-06
  3 38 54     790.31799316  7.50205104E-06
  1 37 56     823.50189209  7.50205104E-06
  2 37 56     802.61093140  7.50205104E-06
  3 37 56     781.71997070  7.50205104E-06
END period  1251

