# File generated by Flopy version 3.3.4 on 08/28/2021 at 11:37:41.
BEGIN options
  XORIGIN  1.10238512E+06
  YORIGIN  1.28136222E+06
END options

BEGIN dimensions
  NLAY  6
  NROW  53
  NCOL  68
END dimensions

BEGIN griddata
  delr
    INTERNAL  FACTOR  1.0
        60.00000000      60.00000000      60.00000000      60.00000000      60.00000000      60.00000000      60.00000000      60.00000000      60.00000000      60.00000000      60.00000000      60.00000000      60.00000000      60.00000000      60.00000000      60.00000000      60.00000000      60.00000000      60.00000000      60.00000000      60.00000000      60.00000000      60.00000000      60.00000000      60.00000000      60.00000000      60.00000000      60.00000000      60.00000000      60.00000000      60.00000000      60.00000000      60.00000000      60.00000000      60.00000000      60.00000000      60.00000000      60.00000000      60.00000000      60.00000000      60.00000000      40.00000000      40.00000000      40.00000000      40.00000000      40.00000000      40.00000000      40.00000000      40.00000000      40.00000000      40.00000000      40.00000000      40.00000000      40.00000000      40.00000000      40.00000000      40.00000000      60.00000000      60.00000000      60.00000000      60.00000000      60.00000000      60.00000000      60.00000000      60.00000000      60.00000000      60.00000000      60.00000000
  delc
    INTERNAL  FACTOR  1.0
        60.00000000      60.00000000      60.00000000      60.00000000      60.00000000      60.00000000      60.00000000      60.00000000      60.00000000      60.00000000      60.00000000      60.00000000      60.00000000      60.00000000      60.00000000      60.00000000      60.00000000      60.00000000      60.00000000      60.00000000      60.00000000      60.00000000      60.00000000      60.00000000      60.00000000      60.00000000      60.00000000      60.00000000      60.00000000      60.00000000      60.00000000      60.00000000      60.00000000      60.00000000      40.00000000      40.00000000      40.00000000      40.00000000      40.00000000      60.00000000      60.00000000      60.00000000      60.00000000      60.00000000      60.00000000      60.00000000      60.00000000      60.00000000      60.00000000      60.00000000      60.00000000      60.00000000      60.00000000
  top
    INTERNAL  FACTOR  1.0
       701.00000000     661.00000000     623.00000000     613.00000000     611.00000000     612.00000000     611.00000000     610.00000000     613.00000000     612.00000000     638.00000000     633.00000000     625.00000000     634.00000000     644.00000000     634.00000000     627.00000000     623.00000000     635.00000000     634.00000000     638.00000000     644.00000000     647.00000000     651.00000000     685.00000000     706.00000000     722.00000000     746.00000000     765.00000000     770.00000000     770.00000000     776.00000000     785.00000000     782.00000000     774.00000000     766.00000000     757.00000000     760.00000000     760.00000000     761.00000000     760.00000000     754.00000000     752.00000000     755.00000000     764.00000000     779.00000000     789.00000000     790.00000000     797.00000000     809.00000000     817.00000000     826.00000000     827.00000000     831.00000000     837.00000000     842.00000000     853.00000000     861.00000000     862.00000000     866.00000000     842.00000000     813.00000000     808.00000000     823.00000000     840.00000000     871.00000000     915.00000000     954.00000000
       720.00000000     693.00000000     658.00000000     630.00000000     620.00000000     627.00000000     627.00000000     636.00000000     649.00000000     666.00000000     664.00000000     644.00000000     625.00000000     623.00000000     626.00000000     625.00000000     623.00000000     622.00000000     630.00000000     637.00000000     631.00000000     634.00000000     635.00000000     651.00000000     680.00000000     716.00000000     733.00000000     755.00000000     756.00000000     750.00000000     762.00000000     767.00000000     773.00000000     767.00000000     765.00000000     763.00000000     751.00000000     744.00000000     747.00000000     751.00000000     754.00000000     745.00000000     740.00000000     748.00000000     758.00000000     773.00000000     778.00000000     780.00000000     786.00000000     800.00000000     806.00000000     817.00000000     833.00000000     843.00000000     849.00000000     855.00000000     860.00000000     855.00000000     855.00000000     856.00000000     851.00000000     824.00000000     808.00000000     820.00000000     836.00000000     873.00000000     914.00000000     943.00000000
       762.00000000     726.00000000     690.00000000     675.00000000     662.00000000     670.00000000     671.00000000     691.00000000     694.00000000     694.00000000     667.00000000     644.00000000     626.00000000     608.00000000     608.67694092     609.90173340     610.74548340     611.89562988     613.81573486     615.53912354     613.85626221     614.00000000     614.41851807     620.66961670     643.75091553     674.97015381     709.55511475     725.30053711     727.39898682     732.70056152     744.60461426     746.71154785     750.75347900     751.27777100     748.57489014     746.26037598     739.00213623     729.61224365     731.99584961     732.00378418     739.74938965     729.26239014     719.44232178     726.26818848     740.23010254     741.33740234     738.74615479     761.62176514     781.25018311     788.34887695     793.00714111     812.43371582     823.96588135     837.03387451     845.58044434     849.31188965     849.20404053     834.21441650     832.00000000     841.62145996     840.00000000     812.00000000     800.00000000     815.00000000     839.00000000     867.00000000     898.00000000     932.00000000
       782.00000000     744.00000000     704.00000000     698.00000000     702.00000000     703.00000000     705.00000000     718.00000000     709.00000000     686.00000000     659.00000000     637.00000000     621.43725586     619.91632080     608.00000000     610.00000000     610.12078857     610.75238037     610.14495850     612.00000000     613.99584961     612.00000000     614.45898438     616.78753662     616.00000000     643.85351562     689.40869141     692.67669678     703.29492188     722.09881592     749.30023193     758.60552979     737.83386230     744.00000000     742.00000000     738.34680176     732.84051514     723.86505127     721.66015625     730.86987305     740.00000000     732.24163818     724.53765869     710.00000000     714.71850586     717.54864502     749.11968994     772.00000000     773.32769775     778.65435791     790.31469727     808.01916504     823.93640137     839.32830811     851.79962158     856.00000000     845.53228760     824.15844727     815.84747314     835.79449463     835.00000000     800.00000000     795.00000000     818.00000000     836.00000000     854.00000000     888.00000000     915.00000000
       809.00000000     765.00000000     730.00000000     728.00000000     730.00000000     727.00000000     715.00000000     713.00000000     703.00000000     677.00000000     648.00000000     623.00000000     609.35168457     621.46087646     624.00000000     611.42590332     610.48760986     612.22180176     617.19598389     616.41040039     617.81622314     620.00000000     628.21954346     626.27453613     624.89764404     620.78674316     649.22979736     670.65026855     708.81091309     740.98620605     753.75396729     754.94549561     735.24664307     721.02166748     723.11322021     727.08911133     726.07183838     713.50903320     717.96002197     725.46972656     729.32110596     730.23254395     723.24157715     703.90142822     715.23266602     730.68054199     739.92834473     764.18902588     768.00000000     774.17187500     789.73480225     808.17431641     828.59588623     844.12451172     847.34307861     844.23284912     834.11657715     817.90545654     809.07580566     821.69372559     814.00000000     788.00000000     799.00000000     813.00000000     829.00000000     849.00000000     871.00000000     909.00000000
       802.00000000     781.00000000     762.00000000     751.00000000     745.00000000     727.00000000     706.00000000     693.00000000     681.00000000     657.00000000     630.00000000     619.00000000     608.00000000     609.49938965     622.72406006     616.83129883     613.63793945     616.00646973     616.33331299     617.16125488     619.05230713     624.00000000     637.68872070     639.81701660     630.43908691     619.11291504     645.46795654     682.38885498     720.63159180     747.85375977     754.28076172     739.00738525     721.00555420     706.29125977     712.97766113     722.03118896     714.00000000     699.84527588     712.37976074     717.63928223     713.38549805     712.29107666     708.60180664     700.45953369     712.46722412     730.16778564     748.10449219     762.00000000     772.53033447     785.13604736     793.23767090     810.96624756     826.45202637     835.03436279     832.55065918     827.48919678     816.00122070     804.24993896     793.90264893     811.57800293     790.00000000     783.00000000     797.00000000     823.00000000     823.00000000     838.00000000     862.00000000     903.00000000
       786.00000000     780.00000000     777.00000000     765.00000000     752.00000000     728.00000000     711.00000000     686.00000000     665.00000000     639.00000000     623.00000000     620.00000000     608.00000000     608.37493896     611.23803711     619.63800049     616.37078857     616.95745850     617.19891357     617.85211182     624.09582520     629.53790283     643.03485107     642.70288086     635.18328857     618.04681396     641.55957031     689.72277832     731.97180176     744.00000000     730.72442627     731.40368652     712.18566895     699.89581299     698.60833740     707.34442139     700.00000000     692.00000000     706.00000000     701.67663574     713.10595703     697.78424072     695.49182129     698.31695557     707.34631348     723.76092529     739.96697998     756.04101562     762.49731445     772.00000000     781.73181152     805.41571045     816.82745361     823.23883057     820.06201172     812.77331543     801.26464844     796.23449707     791.96777344     801.00000000     780.00000000     783.00000000     809.00000000     834.00000000     850.00000000     858.00000000     871.00000000     902.00000000
       765.00000000     755.00000000     757.00000000     760.00000000     732.00000000     713.00000000     695.00000000     672.00000000     644.00000000     624.00000000     621.00000000     620.00000000     608.00000000     610.00000000     610.00000000     614.64031982     617.04040527     617.95220947     618.55462646     621.23657227     624.26477051     633.36285400     646.00000000     645.69281006     644.34509277     622.75683594     632.49621582     676.54235840     724.28881836     739.46716309     719.18572998     710.00494385     712.00000000     694.42572021     685.26995850     710.00000000     698.98590088     690.22125244     694.00000000     694.42901611     694.97283936     690.00000000     691.96801758     707.34295654     726.16644287     737.19183350     749.29779053     752.77691650     764.00000000     780.65209961     794.49340820     810.57012939     811.61859131     809.03173828     806.12469482     802.36627197     791.20159912     781.94238281     794.55914307     800.00000000     784.00000000     801.00000000     821.00000000     847.00000000     869.00000000     878.00000000     881.00000000     882.00000000
       757.00000000     741.00000000     740.00000000     739.00000000     719.00000000     693.00000000     677.00000000     659.00000000     630.00000000     621.00000000     620.00000000     620.00000000     608.00000000     609.66552734     610.00000000     614.90368652     617.23205566     619.11791992     620.10162354     622.57720947     625.06103516     643.73529053     652.00000000     652.00000000     645.11791992     625.70654297     624.56683350     664.20471191     712.98669434     728.37322998     705.05072021     690.00000000     701.71948242     682.45581055     688.74450684     706.81884766     706.67181396     680.43090820     688.29608154     688.73004150     681.15270996     692.71191406     717.15521240     731.16705322     736.62451172     743.77801514     750.53802490     760.00000000     765.91845703     774.18151855     783.41302490     796.87145996     801.34918213     800.24951172     794.41528320     792.02655029     783.24945068     778.35968018     796.02337646     793.00000000     777.00000000     788.00000000     822.00000000     847.00000000     872.00000000     882.00000000     876.00000000     865.00000000
       755.00000000     738.00000000     722.00000000     714.00000000     704.00000000     676.00000000     663.00000000     639.00000000     621.00000000     618.00000000     619.00000000     618.00000000     608.00000000     610.72528076     610.00000000     616.02606201     618.03631592     618.84692383     620.62091064     623.85015869     637.53778076     654.94323730     655.82220459     654.37768555     646.51971436     630.36199951     624.37805176     645.33380127     686.75152588     707.36987305     681.36035156     672.55993652     678.62316895     670.00000000     686.85845947     696.37786865     695.22155762     683.57104492     670.49737549     681.77368164     680.49676514     703.20703125     718.81921387     744.57135010     748.73999023     757.67608643     760.00000000     760.32202148     771.12078857     772.03747559     774.37451172     779.37585449     782.39971924     782.17907715     782.00000000     777.42749023     768.02691650     778.83703613     796.00000000     783.00000000     772.00000000     780.00000000     825.00000000     844.00000000     867.00000000     873.00000000     862.00000000     840.00000000
       759.00000000     745.00000000     716.00000000     699.00000000     683.00000000     673.00000000     663.00000000     646.00000000     618.00000000     621.00000000     620.00000000     621.00000000     608.00000000     610.00000000     610.17535400     618.52435303     620.00000000     620.00000000     621.66510010     625.02313232     646.88549805     661.22869873     658.47180176     670.02618408     649.22790527     644.22747803     624.00000000     624.07733154     652.88287354     677.45318604     662.27307129     659.49078369     662.32971191     671.08203125     678.37609863     681.49517822     681.72216797     684.98156738     672.49554443     676.30786133     680.00000000     716.78839111     732.47473145     750.45037842     760.36297607     763.23480225     764.49755859     770.65350342     776.42333984     773.31353760     772.00000000     770.55700684     768.61700439     770.53247070     769.92297363     760.93585205     765.00805664     781.80151367     789.57287598     770.00000000     767.00000000     784.00000000     823.00000000     842.00000000     864.00000000     856.00000000     855.00000000     832.00000000
       744.00000000     731.00000000     713.00000000     700.00000000     694.00000000     685.00000000     672.00000000     642.00000000     617.00000000     623.00000000     622.00000000     621.00000000     608.00000000     612.00000000     612.49475098     619.76391602     620.00000000     621.07385254     623.12329102     626.00000000     649.45733643     664.92559814     675.83581543     680.00000000     656.49481201     646.36889648     631.26318359     628.00000000     624.00000000     651.06347656     652.38293457     651.76184082     657.95007324     659.11273193     666.30413818     662.94982910     665.89923096     669.84057617     658.09948730     658.47479248     674.93353271     699.47125244     713.23736572     728.94067383     742.49139404     750.85992432     766.11499023     775.04376221     778.76269531     780.00000000     777.63879395     767.82403564     763.27410889     760.00000000     760.26824951     746.21038818     759.15502930     770.20520020     765.00000000     754.00000000     769.00000000     800.00000000     826.00000000     839.00000000     856.00000000     855.00000000     859.00000000     831.00000000
       724.00000000     723.00000000     710.00000000     697.00000000     680.00000000     674.00000000     664.00000000     634.00000000     621.00000000     622.00000000     622.00000000     623.00000000     608.00000000     612.00000000     615.23608398     620.00000000     621.99810791     623.62524414     625.56103516     627.77691650     655.34197998     668.74560547     680.00000000     685.97180176     670.96789551     662.02478027     640.67260742     628.60986328     628.00000000     640.78479004     646.19342041     650.07366943     652.00000000     653.91064453     654.83551025     655.45385742     656.34259033     656.00000000     656.00000000     656.00000000     669.10461426     684.97662354     692.82238770     713.76361084     736.74053955     750.43341064     766.90783691     772.39648438     774.32189941     771.45886230     769.48089600     764.13879395     760.02111816     751.98352051     745.53271484     737.07550049     737.12304688     743.00000000     745.00000000     745.00000000     777.00000000     818.00000000     826.00000000     836.00000000     841.00000000     847.00000000     856.00000000     840.00000000
       708.00000000     704.00000000     696.00000000     685.00000000     675.00000000     657.00000000     650.00000000     633.00000000     623.00000000     623.00000000     622.00000000     624.00000000     608.00000000     612.00000000     618.66845703     620.10491943     622.37530518     625.39916992     628.49102783     633.17022705     657.14288330     670.00000000     683.89923096     688.98974609     686.00000000     676.46313477     659.63183594     632.00000000     630.46801758     632.06506348     637.34320068     637.80694580     650.43048096     651.30822754     651.32635498     650.75360107     653.93298340     655.36944580     656.00000000     658.55322266     666.57525635     675.35333252     686.18786621     704.88934326     722.50872803     740.79449463     759.26770020     765.51531982     763.33843994     764.55920410     761.85968018     758.25885010     756.59832764     752.15246582     738.42877197     727.24218750     734.00000000     733.00000000     738.00000000     761.00000000     790.00000000     807.00000000     808.00000000     818.00000000     833.00000000     843.00000000     854.00000000     843.00000000
       697.00000000     687.00000000     681.00000000     670.00000000     666.00000000     656.00000000     641.00000000     630.00000000     624.00000000     625.00000000     623.00000000     622.00000000     609.31860352     613.64855957     620.00000000     623.15112305     625.96429443     630.00000000     637.42926025     650.19274902     657.84582520     672.92529297     697.89825439     699.75036621     698.91772461     693.26623535     689.49530029     667.24816895     628.00000000     632.00000000     634.62585449     635.33575439     637.72821045     642.07379150     642.29479980     644.66156006     647.93658447     652.00000000     654.00000000     658.73919678     666.00000000     672.42437744     683.89007568     707.72064209     722.67541504     736.72760010     750.36981201     750.92169189     747.82458496     747.45123291     748.36059570     746.38946533     742.34259033     741.00152588     746.00000000     743.00000000     724.00000000     725.00000000     740.00000000     766.00000000     779.00000000     792.00000000     796.00000000     802.00000000     829.00000000     853.00000000     855.00000000     839.00000000
       688.00000000     686.00000000     674.00000000     666.00000000     656.00000000     650.00000000     637.00000000     631.00000000     626.00000000     626.00000000     625.00000000     609.64294434     610.00000000     617.17651367     627.85241699     626.00000000     633.18487549     634.94439697     643.79321289     644.00000000     652.75524902     671.56011963     689.17175293     709.57470703     712.00000000     712.93469238     704.69525146     688.00000000     634.20910645     631.95953369     632.28820801     632.99743652     635.16375732     640.00000000     638.00000000     638.00000000     638.00848389     638.00000000     648.76416016     655.09014893     665.30413818     673.06738281     683.40460205     711.12628174     734.77471924     742.86035156     748.00000000     745.59197998     742.49542236     741.45220947     741.39459229     740.88854980     734.48071289     742.37384033     750.00000000     740.00000000     722.00000000     724.00000000     739.00000000     753.00000000     767.00000000     780.00000000     798.00000000     829.00000000     852.00000000     857.00000000     855.00000000     838.00000000
       681.00000000     677.00000000     669.00000000     659.00000000     647.00000000     641.00000000     632.00000000     627.00000000     624.00000000     627.00000000     623.00000000     609.98291016     610.00000000     620.22546387     636.84600830     638.00000000     637.46325684     638.00000000     642.36401367     658.00000000     653.18878174     674.66735840     690.00000000     700.00000000     711.30230713     720.03570557     722.42755127     702.50299072     658.89880371     637.34631348     634.71740723     634.68511963     633.01721191     636.21813965     638.07379150     639.37048340     639.59442139     639.62109375     638.00000000     645.83007812     663.21185303     669.92529297     688.28631592     710.12780762     728.11871338     733.67486572     742.15264893     741.48449707     737.26641846     732.31164551     730.79296875     733.82061768     726.88592529     735.07025146     748.00000000     741.00000000     718.00000000     717.00000000     726.00000000     759.00000000     793.00000000     809.00000000     826.00000000     836.00000000     851.00000000     855.00000000     854.00000000     835.00000000
       681.00000000     666.00000000     659.00000000     652.00000000     642.00000000     632.00000000     624.00000000     624.00000000     623.00000000     625.00000000     620.00000000     610.32397461     611.61138916     612.00000000     638.02325439     643.50732422     642.53686523     635.67517090     642.46856689     665.83770752     660.42736816     675.48693848     691.50219727     700.00000000     716.60803223     735.31762695     736.69824219     720.37646484     692.25122070     659.01745605     654.01397705     647.60577393     645.55975342     644.26727295     643.16558838     645.63940430     645.66906738     648.00000000     648.00000000     640.00000000     662.85345459     669.89984131     675.62908936     704.08880615     726.61614990     734.00000000     730.68096924     731.30261230     718.27093506     716.00000000     726.00000000     725.30041504     735.05737305     736.60278320     739.00000000     727.00000000     713.00000000     713.00000000     735.00000000     770.00000000     794.00000000     813.00000000     828.00000000     828.00000000     839.00000000     848.00000000     845.00000000     835.00000000
       681.00000000     669.00000000     656.00000000     651.00000000     641.00000000     631.00000000     626.00000000     624.00000000     623.00000000     624.00000000     622.00000000     610.87896729     612.00000000     612.00000000     630.83734131     645.56280518     645.08184814     636.10980225     644.23272705     661.61810303     672.00000000     676.94958496     693.85229492     703.01696777     718.58276367     738.86907959     744.64190674     724.59936523     700.00000000     679.44390869     678.67492676     668.83398438     670.94598389     666.38281250     656.53802490     652.00000000     652.48663330     649.36926270     648.00000000     646.00000000     652.47943115     667.19909668     673.45471191     692.68566895     718.10296631     719.75616455     703.54656982     708.71716309     703.79455566     719.11419678     722.38464355     726.76464844     731.68273926     731.00000000     723.00000000     712.00000000     702.00000000     720.00000000     765.00000000     775.00000000     789.00000000     809.00000000     822.00000000     824.00000000     833.00000000     838.00000000     834.00000000     824.00000000
       677.00000000     667.00000000     659.00000000     650.00000000     635.00000000     626.00000000     625.00000000     623.00000000     624.00000000     623.00000000     624.00000000     611.65594482     612.11694336     613.53125000     630.00000000     648.64385986     649.63690186     646.58587646     641.85174561     658.06103516     680.00000000     684.78918457     699.69567871     704.32519531     718.80657959     734.51794434     748.00000000     732.26617432     704.73577881     696.00000000     692.43670654     693.54516602     691.96936035     686.43963623     669.74230957     662.02032471     657.94171143     652.00000000     650.55450439     648.00000000     648.07000732     664.63323975     670.16522217     668.25744629     674.00000000     678.13220215     688.00000000     707.94787598     719.87518311     719.34082031     711.00592041     714.71606445     724.00000000     718.00000000     705.00000000     701.00000000     717.00000000     741.00000000     763.00000000     768.00000000     782.00000000     801.00000000     813.00000000     809.00000000     821.00000000     829.00000000     822.00000000     807.00000000
       677.00000000     669.00000000     656.00000000     640.00000000     626.00000000     625.00000000     623.00000000     625.00000000     626.00000000     627.00000000     628.00000000     612.00000000     612.53417969     627.38793945     634.57409668     651.46063232     657.27581787     652.58898926     644.25640869     656.69842529     677.54254150     696.65521240     718.02136230     725.45782471     731.91101074     742.00000000     743.19946289     722.60870361     710.00000000     700.00000000     704.60821533     710.00000000     707.11035156     691.69531250     672.00000000     672.24603271     670.00000000     658.00000000     650.46289062     647.17608643     646.20782471     659.32617188     666.00000000     667.19256592     682.07116699     698.87854004     704.75238037     706.43164062     709.92938232     692.67553711     680.12353516     697.00000000     700.00000000     696.00000000     693.00000000     702.00000000     716.00000000     730.00000000     744.00000000     750.00000000     768.00000000     787.00000000     796.00000000     798.00000000     808.00000000     823.00000000     824.00000000     795.00000000
       672.00000000     671.00000000     657.00000000     635.00000000     626.00000000     625.00000000     626.00000000     627.00000000     625.00000000     627.00000000     612.33544922     612.62738037     613.51507568     636.00000000     646.36578369     664.57769775     666.50659180     656.41967773     648.00000000     658.00000000     672.30175781     695.89105225     718.64971924     732.00000000     742.61981201     742.00000000     736.77844238     730.61810303     715.75262451     707.74963379     709.02355957     710.00000000     712.00000000     704.99554443     680.00000000     686.97613525     679.02124023     664.47479248     659.16406250     648.87353516     647.53356934     649.67449951     648.00000000     651.23150635     653.69042969     668.85974121     675.41406250     673.63415527     669.80914307     665.06158447     667.79376221     674.66186523     670.65740967     681.00000000     688.00000000     688.00000000     692.00000000     701.00000000     713.00000000     729.00000000     752.00000000     768.00000000     783.00000000     789.00000000     802.00000000     821.00000000     818.00000000     792.00000000
       665.00000000     662.00000000     657.00000000     636.00000000     625.00000000     629.00000000     628.00000000     626.00000000     627.00000000     628.00000000     612.97705078     613.21209717     622.73638916     634.18334961     650.17279053     657.28332520     669.78881836     665.19494629     652.00000000     662.12451172     675.49743652     692.95599365     716.29467773     729.19604492     748.00000000     744.56640625     735.66644287     728.87573242     722.59478760     716.12945557     711.79797363     710.52172852     711.85272217     715.23510742     680.00000000     702.49597168     693.48706055     671.84143066     662.11059570     651.19165039     646.53894043     647.54302979     647.57525635     648.00000000     648.88159180     648.81335449     649.78289795     650.00000000     651.04144287     652.00000000     652.00000000     655.58209229     656.86627197     658.00000000     659.11590576     660.00000000     664.66998291     669.67590332     677.79705811     704.69128418     733.00000000     749.00000000     755.00000000     768.00000000     797.00000000     818.00000000     815.00000000     791.00000000