# File generated by Flopy version 3.3.2 on 08/10/2021 at 08:53:13.
BEGIN options
  PRINT_INPUT
  PRINT_FLOWS
  SAVE_FLOWS
END options

BEGIN dimensions
  MAXBOUND  20
END dimensions

BEGIN period  1
    OPEN/CLOSE  'ghb_5.txt'
END period  1

