# File generated by Flopy version 3.3.2 on 08/22/2021 at 14:25:59.
BEGIN options
  COMPLEXITY  complex
END options

