# File generated by Flopy version 3.3.4 on 08/28/2021 at 11:37:42.
BEGIN options
  SAVE_FLOWS
END options

BEGIN griddata
  iconvert
    CONSTANT  1
  ss  LAYERED
    OPEN/CLOSE  'ss_qd_qbg.txt'  FACTOR  1.0
    OPEN/CLOSE  'ss_qbo2.txt'  FACTOR  1.0
    OPEN/CLOSE  'ss_qbo2.txt'  FACTOR  1.0
    OPEN/CLOSE  'ss_qbo1.txt'  FACTOR  1.0
    OPEN/CLOSE  'ss_qbo1.txt'  FACTOR  1.0
    OPEN/CLOSE  'ss_roc.txt'  FACTOR  1.0
  sy  LAYERED
    OPEN/CLOSE  'sy_qd_qbg.txt'  FACTOR  1.0
    OPEN/CLOSE  'sy_qbo2.txt'  FACTOR  1.0
    OPEN/CLOSE  'sy_qbo2.txt'  FACTOR  1.0
    OPEN/CLOSE  'sy_qbo1.txt'  FACTOR  1.0
    OPEN/CLOSE  'sy_qbo1.txt'  FACTOR  1.0
    OPEN/CLOSE  'sy_roc.txt'  FACTOR  1.0
END griddata

BEGIN period  1
  STEADY-STATE
END period  1

BEGIN period  2
  TRANSIENT
END period  2

