# File generated by Flopy version 3.3.2 on 08/24/2021 at 15:10:50.
BEGIN options
  COMPLEXITY  complex
END options

