# File generated by Flopy version 3.3.2 on 05/30/2021 at 16:14:01.
BEGIN options
  SAVE_FLOWS
END options

BEGIN griddata
  icelltype
    CONSTANT  1
  k  LAYERED
    OPEN/CLOSE  'k_qd_qbg.txt'  FACTOR  1.0
    OPEN/CLOSE  'k_qbo2.txt'  FACTOR  1.0
    OPEN/CLOSE  'k_qbo2.txt'  FACTOR  1.0
    OPEN/CLOSE  'k_qbo1.txt'  FACTOR  1.0
    OPEN/CLOSE  'k_qbo1.txt'  FACTOR  1.0
    OPEN/CLOSE  'k_roc.txt'  FACTOR  1.0
END griddata

