# File generated by Flopy version 3.3.6 on 08/05/2022 at 21:27:01.
BEGIN options
END options

BEGIN continuous  FILEOUT  mod_drn_gal_obs.csv
  gal-flow  drn  gal_flow
END continuous  FILEOUT  mod_drn_gal_obs.csv

