# File generated by Flopy version 3.3.2 on 08/23/2021 at 10:15:35.
BEGIN options
  COMPLEXITY  complex
END options

