# File generated by Flopy version 3.3.6 on 08/05/2022 at 21:27:01.
BEGIN griddata
  strt  LAYERED
    INTERNAL  FACTOR  1.0
         712.12458872     682.24770860     650.75177023     625.87462271     614.81614888     612.31227396     610.90190040     610.80085996     611.79854181     610.90000000     610.08094494     611.10055065     612.91000000     611.24987763     614.61847383     633.73043168     636.57698253     631.61995092     625.94329028     625.19204623     637.87733175     644.80305919     641.35940517     634.03760027     628.11159075     624.43836166     625.94884772     634.54473148     634.16856220     633.99757988     636.69870496     640.12249975     646.38199320     647.79891230     644.80817131     655.73816451     678.92352553     695.47248810     706.69240653     720.24286540     736.76410605     749.01369477     761.65477906     769.48983345     769.76405846     770.29919103     771.25821550     778.45185928     784.53211761     784.04153977     780.81320190     775.18377756     771.78864718     765.52044528     757.79178450     758.74581577     760.18242352     760.17544528     760.55173351     761.77314752     761.71016995     759.55245071     757.37784160     755.52049966     754.19283141     753.95285860     753.47291298     753.22537390     752.96020394     752.69503399     752.42986404     752.22120996     752.20000000     752.20000000     752.20000000     752.23140880     752.40747451     752.62225017     752.83702583     753.05381226     753.28670632     753.52667913     753.76665194     754.00698941     754.26327328     754.52964310     754.79601292     755.06238273     755.44301895     755.94482665     756.44996941     756.95511217     757.53062985     758.24250170     758.96122026     759.67993882     760.44228820     761.38997621     762.34986744     763.30975867     764.27664800     765.43525153     766.60871856     767.78218559     768.95565262     770.15108770     771.35215160     772.55321550     773.75427940     774.93874235     776.11340925     777.28807614     778.46274303     779.53823589     780.49812712     781.45801835     782.41790959     783.30745411     784.02857240     784.74969069     785.47080897     786.14219061     786.64112848     787.12107410     787.60101971     788.04685197     788.33045547     788.57042828     788.81040109     789.05027967     789.28939497     789.52816791     789.76694086     790.00204513     790.09500000     790.09500000     790.09500000     790.09500000     790.09556924     790.09675051     790.09795037     790.09915024     790.25707668     790.71843644     791.19718219     791.67592794     792.15948883     792.66310673     793.16824949     793.67339225     794.18649996     794.88932699     795.60924541     796.32916383     797.04908226     798.12841944     799.30308634     800.47775323     801.65242012     802.69323249     803.65312373     804.61301496     805.57290619     806.42389531     807.14501360     807.86613188     808.58725017     809.30108770     809.99700884     810.69292998     811.38885112     812.08453333     812.77934738     813.47406866     814.16878994     814.83389847     815.35319171     815.83313732     816.31308294     816.81143169     817.46101632     818.17973487     818.89845343     819.61360057     820.20338885     820.70853161     821.21367437     821.71881713     822.33620626     823.07610129     823.82001700     824.56393270     825.15145042     825.43604011     825.70121006     825.96638001     826.22692072     826.46852481     826.70849762     826.94847043     827.18740484     827.40443236     827.61920802     827.83398368     828.04875935     827.90857580     827.67100272     827.43342964     827.19585656     827.09018015     827.06618287     827.04218559     827.01818831     827.20983005     827.66457852     828.11932699     828.57407546     829.02916383     829.48511217     829.94106050     830.39700884     830.85779114     831.33702923     831.81817471     832.29932019     832.78030560     833.26047247     833.74041808     834.22036370     834.69840892     835.16055404     835.61530252     836.07005099     836.52525015     836.99503739     837.47498300     837.95492862     838.43487424     838.91481985     839.39476547     839.87471108     840.35465670     840.76519418     841.04107410     841.30744392     841.57381373     841.87966022     842.34433039     842.82427600     843.30422162     843.79380898     844.46619307     845.15971448     845.85323589     846.54675731     847.98076139     850.14051666     853.02019035     857.33696805     860.81371345     861.10000000     864.84605370     865.07953093     851.14783821     832.38501020     813.28980965     804.96136951     810.92576479     824.25645479     833.97084976     848.65282461     871.92880014     897.21672332     926.75301835
         712.12458872     682.24770860     650.75177023     625.87462271     614.81614888     612.31227396     610.90190040     610.80085996     611.79854181     610.90000000     610.08094494     611.10055065     612.91000000     611.24987763     614.61847383     633.73043168     636.57698253     631.61995092     625.94329028     625.19204623     637.87733175     644.80305919     641.35940517     634.03760027     628.11159075     624.43836166     625.94884772     634.54473148     634.16856220     633.99757988     636.69870496     640.12249975     646.38199320     647.79891230     644.80817131     655.73816451     678.92352553     695.47248810     706.69240653     720.24286540     736.76410605     749.01369477     761.65477906     769.48983345     769.76405846     770.29919103     771.25821550     778.45185928     784.53211761     784.04153977     780.81320190     775.18377756     771.78864718     765.52044528     757.79178450     758.74581577     760.18242352     760.17544528     760.55173351     761.77314752     761.71016995     759.55245071     757.37784160     755.52049966     754.19283141     753.95285860     753.47291298     753.22537390     752.96020394     752.69503399     752.42986404     752.22120996     752.20000000     752.20000000     752.20000000     752.23140880     752.40747451     752.62225017     752.83702583     753.05381226     753.28670632     753.52667913     753.76665194     754.00698941     754.26327328     754.52964310     754.79601292     755.06238273     755.44301895     755.94482665     756.44996941     756.95511217     757.53062985     758.24250170     758.96122026     759.67993882     760.44228820     761.38997621     762.34986744     763.30975867     764.27664800     765.43525153     766.60871856     767.78218559     768.95565262     770.15108770     771.35215160     772.55321550     773.75427940     774.93874235     776.11340925     777.28807614     778.46274303     779.53823589     780.49812712     781.45801835     782.41790959     783.30745411     784.02857240     784.74969069     785.47080897     786.14219061     786.64112848     787.12107410     787.60101971     788.04685197     788.33045547     788.57042828     788.81040109     789.05027967     789.28939497     789.52816791     789.76694086     790.00204513     790.09500000     790.09500000     790.09500000     790.09500000     790.09556924     790.09675051     790.09795037     790.09915024     790.25707668     790.71843644     791.19718219     791.67592794     792.15948883     792.66310673     793.16824949     793.67339225     794.18649996     794.88932699     795.60924541     796.32916383     797.04908226     798.12841944     799.30308634     800.47775323     801.65242012     802.69323249     803.65312373     804.61301496     805.57290619     806.42389531     807.14501360     807.86613188     808.58725017     809.30108770     809.99700884     810.69292998     811.38885112     812.08453333     812.77934738     813.47406866     814.16878994     814.83389847     815.35319171     815.83313732     816.31308294     816.81143169     817.46101632     818.17973487     818.89845343     819.61360057     820.20338885     820.70853161     821.21367437     821.71881713     822.33620626     823.07610129     823.82001700     824.56393270     825.15145042     825.43604011     825.70121006     825.96638001     826.22692072     826.46852481     826.70849762     826.94847043     827.18740484     827.40443236     827.61920802     827.83398368     828.04875935     827.90857580     827.67100272     827.43342964     827.19585656     827.09018015     827.06618287     827.04218559     827.01818831     827.20983005     827.66457852     828.11932699     828.57407546     829.02916383     829.48511217     829.94106050     830.39700884     830.85779114     831.33702923     831.81817471     832.29932019     832.78030560     833.26047247     833.74041808     834.22036370     834.69840892     835.16055404     835.61530252     836.07005099     836.52525015     836.99503739     837.47498300     837.95492862     838.43487424     838.91481985     839.39476547     839.87471108     840.35465670     840.76519418     841.04107410     841.30744392     841.57381373     841.87966022     842.34433039     842.82427600     843.30422162     843.79380898     844.46619307     845.15971448     845.85323589     846.54675731     847.98076139     850.14051666     853.02019035     857.33696805     860.81371345     861.10000000     864.84605370     865.07953093     851.14783821     832.38501020     813.28980965     804.96136951     810.92576479     824.25645479     833.97084976     848.65282461     871.92880014     897.21672332     926.75301835
         712.12458872     682.24770860     650.75177023     625.87462271     614.81614888     612.31227396     610.90190040     610.80085996     611.79854181     610.90000000     610.08094494     611.10055065     612.91000000     611.24987763     614.61847383     633.73043168     636.57698253     631.61995092     625.94329028     625.19204623     637.87733175     644.80305919     641.35940517     634.03760027     628.11159075     624.43836166     625.94884772     634.54473148     634.16856220     633.99757988     636.69870496     640.12249975     646.38199320     647.79891230     644.80817131     655.73816451     678.92352553     695.47248810     706.69240653     720.24286540     736.76410605     749.01369477     761.65477906     769.48983345     769.76405846     770.29919103     771.25821550     778.45185928     784.53211761     784.04153977     780.81320190     775.18377756     771.78864718     765.52044528     757.79178450     758.74581577     760.18242352     760.17544528     760.55173351     761.77314752     761.71016995     759.55245071     757.37784160     755.52049966     754.19283141     753.95285860     753.47291298     753.22537390     752.96020394     752.69503399     752.42986404     752.22120996     752.20000000     752.20000000     752.20000000     752.23140880     752.40747451     752.62225017     752.83702583     753.05381226     753.28670632     753.52667913     753.76665194     754.00698941     754.26327328     754.52964310     754.79601292     755.06238273     755.44301895     755.94482665     756.44996941     756.95511217     757.53062985     758.24250170     758.96122026     759.67993882     760.44228820     761.38997621     762.34986744     763.30975867     764.27664800     765.43525153     766.60871856     767.78218559     768.95565262     770.15108770     771.35215160     772.55321550     773.75427940     774.93874235     776.11340925     777.28807614     778.46274303     779.53823589     780.49812712     781.45801835     782.41790959     783.30745411     784.02857240     784.74969069     785.47080897     786.14219061     786.64112848     787.12107410     787.60101971     788.04685197     788.33045547     788.57042828     788.81040109     789.05027967     789.28939497     789.52816791     789.76694086     790.00204513     790.09500000     790.09500000     790.09500000     790.09500000     790.09556924     790.09675051     790.09795037     790.09915024     790.25707668     790.71843644     791.19718219     791.67592794     792.15948883     792.66310673     793.16824949     793.67339225     794.18649996     794.88932699     795.60924541     796.32916383     797.04908226     798.12841944     799.30308634     800.47775323     801.65242012     802.69323249     803.65312373     804.61301496     805.57290619     806.42389531     807.14501360     807.86613188     808.58725017     809.30108770     809.99700884     810.69292998     811.38885112     812.08453333     812.77934738     813.47406866     814.16878994     814.83389847     815.35319171     815.83313732     816.31308294     816.81143169     817.46101632     818.17973487     818.89845343     819.61360057     820.20338885     820.70853161     821.21367437     821.71881713     822.33620626     823.07610129     823.82001700     824.56393270     825.15145042     825.43604011     825.70121006     825.96638001     826.22692072     826.46852481     826.70849762     826.94847043     827.18740484     827.40443236     827.61920802     827.83398368     828.04875935     827.90857580     827.67100272     827.43342964     827.19585656     827.09018015     827.06618287     827.04218559     827.01818831     827.20983005     827.66457852     828.11932699     828.57407546     829.02916383     829.48511217     829.94106050     830.39700884     830.85779114     831.33702923     831.81817471     832.29932019     832.78030560     833.26047247     833.74041808     834.22036370     834.69840892     835.16055404     835.61530252     836.07005099     836.52525015     836.99503739     837.47498300     837.95492862     838.43487424     838.91481985     839.39476547     839.87471108     840.35465670     840.76519418     841.04107410     841.30744392     841.57381373     841.87966022     842.34433039     842.82427600     843.30422162     843.79380898     844.46619307     845.15971448     845.85323589     846.54675731     847.98076139     850.14051666     853.02019035     857.33696805     860.81371345     861.10000000     864.84605370     865.07953093     851.14783821     832.38501020     813.28980965     804.96136951     810.92576479     824.25645479     833.97084976     848.65282461     871.92880014     897.21672332     926.75301835
         712.12458872     682.24770860     650.75177023     625.87462271     614.81614888     612.31227396     610.90190040     610.80085996     611.79854181     610.90000000     610.08094494     611.10055065     612.91000000     611.24987763     614.61847383     633.73043168     636.57698253     631.61995092     625.94329028     625.19204623     637.87733175     644.80305919     641.35940517     634.03760027     628.11159075     624.43836166     625.94884772     634.54473148     634.16856220     633.99757988     636.69870496     640.12249975     646.38199320     647.79891230     644.80817131     655.73816451     678.92352553     695.47248810     706.69240653     720.24286540     736.76410605     749.01369477     761.65477906     769.48983345     769.76405846     770.29919103     771.25821550     778.45185928     784.53211761     784.04153977     780.81320190     775.18377756     771.78864718     765.52044528     757.79178450     758.74581577     760.18242352     760.17544528     760.55173351     761.77314752     761.71016995     759.55245071     757.37784160     755.52049966     754.19283141     753.95285860     753.47291298     753.22537390     752.96020394     752.69503399     752.42986404     752.22120996     752.20000000     752.20000000     752.20000000     752.23140880     752.40747451     752.62225017     752.83702583     753.05381226     753.28670632     753.52667913     753.76665194     754.00698941     754.26327328     754.52964310     754.79601292     755.06238273     755.44301895     755.94482665     756.44996941     756.95511217     757.53062985     758.24250170     758.96122026     759.67993882     760.44228820     761.38997621     762.34986744     763.30975867     764.27664800     765.43525153     766.60871856     767.78218559     768.95565262     770.15108770     771.35215160     772.55321550     773.75427940     774.93874235     776.11340925     777.28807614     778.46274303     779.53823589     780.49812712     781.45801835     782.41790959     783.30745411     784.02857240     784.74969069     785.47080897     786.14219061     786.64112848     787.12107410     787.60101971     788.04685197     788.33045547     788.57042828     788.81040109     789.05027967     789.28939497     789.52816791     789.76694086     790.00204513     790.09500000     790.09500000     790.09500000     790.09500000     790.09556924     790.09675051     790.09795037     790.09915024     790.25707668     790.71843644     791.19718219     791.67592794     792.15948883     792.66310673     793.16824949     793.67339225     794.18649996     794.88932699     795.60924541     796.32916383     797.04908226     798.12841944     799.30308634     800.47775323     801.65242012     802.69323249     803.65312373     804.61301496     805.57290619     806.42389531     807.14501360     807.86613188     808.58725017     809.30108770     809.99700884     810.69292998     811.38885112     812.08453333     812.77934738     813.47406866     814.16878994     814.83389847     815.35319171     815.83313732     816.31308294     816.81143169     817.46101632     818.17973487     818.89845343     819.61360057     820.20338885     820.70853161     821.21367437     821.71881713     822.33620626     823.07610129     823.82001700     824.56393270     825.15145042     825.43604011     825.70121006     825.96638001     826.22692072     826.46852481     826.70849762     826.94847043     827.18740484     827.40443236     827.61920802     827.83398368     828.04875935     827.90857580     827.67100272     827.43342964     827.19585656     827.09018015     827.06618287     827.04218559     827.01818831     827.20983005     827.66457852     828.11932699     828.57407546     829.02916383     829.48511217     829.94106050     830.39700884     830.85779114     831.33702923     831.81817471     832.29932019     832.78030560     833.26047247     833.74041808     834.22036370     834.69840892     835.16055404     835.61530252     836.07005099     836.52525015     836.99503739     837.47498300     837.95492862     838.43487424     838.91481985     839.39476547     839.87471108     840.35465670     840.76519418     841.04107410     841.30744392     841.57381373     841.87966022     842.34433039     842.82427600     843.30422162     843.79380898     844.46619307     845.15971448     845.85323589     846.54675731     847.98076139     850.14051666     853.02019035     857.33696805     860.81371345     861.10000000     864.84605370     865.07953093     851.14783821     832.38501020     813.28980965     804.96136951     810.92576479     824.25645479     833.97084976     848.65282461     871.92880014     897.21672332     926.75301835
         712.12458872     682.24770860     650.75177023     625.87462271     614.81614888     612.31227396     610.90190040     610.80085996     611.79854181     610.90000000     610.08094494     611.10055065     612.91000000     611.24987763     614.61847383     633.73043168     636.57698253     631.61995092     625.94329028     625.19204623     637.87733175     644.80305919     641.35940517     634.03760027     628.11159075     624.43836166     625.94884772     634.54473148     634.16856220     633.99757988     636.69870496     640.12249975     646.38199320     647.79891230     644.80817131     655.73816451     678.92352553     695.47248810     706.69240653     720.24286540     736.76410605     749.01369477     761.65477906     769.48983345     769.76405846     770.29919103     771.25821550     778.45185928     784.53211761     784.04153977     780.81320190     775.18377756     771.78864718     765.52044528     757.79178450     758.74581577     760.18242352     760.17544528     760.55173351     761.77314752     761.71016995     759.55245071     757.37784160     755.52049966     754.19283141     753.95285860     753.47291298     753.22537390     752.96020394     752.69503399     752.42986404     752.22120996     752.20000000     752.20000000     752.20000000     752.23140880     752.40747451     752.62225017     752.83702583     753.05381226     753.28670632     753.52667913     753.76665194     754.00698941     754.26327328     754.52964310     754.79601292     755.06238273     755.44301895     755.94482665     756.44996941     756.95511217     757.53062985     758.24250170     758.96122026     759.67993882     760.44228820     761.38997621     762.34986744     763.30975867     764.27664800     765.43525153     766.60871856     767.78218559     768.95565262     770.15108770     771.35215160     772.55321550     773.75427940     774.93874235     776.11340925     777.28807614     778.46274303     779.53823589     780.49812712     781.45801835     782.41790959     783.30745411     784.02857240     784.74969069     785.47080897     786.14219061     786.64112848     787.12107410     787.60101971     788.04685197     788.33045547     788.57042828     788.81040109     789.05027967     789.28939497     789.52816791     789.76694086     790.00204513     790.09500000     790.09500000     790.09500000     790.09500000     790.09556924     790.09675051     790.09795037     790.09915024     790.25707668     790.71843644     791.19718219     791.67592794     792.15948883     792.66310673     793.16824949     793.67339225     794.18649996     794.88932699     795.60924541     796.32916383     797.04908226     798.12841944     799.30308634     800.47775323     801.65242012     802.69323249     803.65312373     804.61301496     805.57290619     806.42389531     807.14501360     807.86613188     808.58725017     809.30108770     809.99700884     810.69292998     811.38885112     812.08453333     812.77934738     813.47406866     814.16878994     814.83389847     815.35319171     815.83313732     816.31308294     816.81143169     817.46101632     818.17973487     818.89845343     819.61360057     820.20338885     820.70853161     821.21367437     821.71881713     822.33620626     823.07610129     823.82001700     824.56393270     825.15145042     825.43604011     825.70121006     825.96638001     826.22692072     826.46852481     826.70849762     826.94847043     827.18740484     827.40443236     827.61920802     827.83398368     828.04875935     827.90857580     827.67100272     827.43342964     827.19585656     827.09018015     827.06618287     827.04218559     827.01818831     827.20983005     827.66457852     828.11932699     828.57407546     829.02916383     829.48511217     829.94106050     830.39700884     830.85779114     831.33702923     831.81817471     832.29932019     832.78030560     833.26047247     833.74041808     834.22036370     834.69840892     835.16055404     835.61530252     836.07005099     836.52525015     836.99503739     837.47498300     837.95492862     838.43487424     838.91481985     839.39476547     839.87471108     840.35465670     840.76519418     841.04107410     841.30744392     841.57381373     841.87966022     842.34433039     842.82427600     843.30422162     843.79380898     844.46619307     845.15971448     845.85323589     846.54675731     847.98076139     850.14051666     853.02019035     857.33696805     860.81371345     861.10000000     864.84605370     865.07953093     851.14783821     832.38501020     813.28980965     804.96136951     810.92576479     824.25645479     833.97084976     848.65282461     871.92880014     897.21672332     926.75301835
         712.12458872     682.24770860     650.75177023     625.87462271     614.81614888     612.31227396     610.90190040     610.80085996     611.79854181     610.90000000     610.08094494     611.10055065     612.91000000     611.24987763     614.61847383     633.73043168     636.57698253     631.61995092     625.94329028     625.19204623     637.87733175     644.80305919     641.35940517     634.03760027     628.11159075     624.43836166     625.94884772     634.54473148     634.16856220     633.99757988     636.69870496     640.12249975     646.38199320     647.79891230     644.80817131     655.73816451     678.92352553     695.47248810     706.69240653     720.24286540     736.76410605     749.01369477     761.65477906     769.48983345     769.76405846     770.29919103     771.25821550     778.45185928     784.53211761     784.04153977     780.81320190     775.18377756     771.78864718     765.52044528     757.79178450     758.74581577     760.18242352     760.17544528     760.55173351     761.77314752     761.71016995     759.55245071     757.37784160     755.52049966     754.19283141     753.95285860     753.47291298     753.22537390     752.96020394     752.69503399     752.42986404     752.22120996     752.20000000     752.20000000     752.20000000     752.23140880     752.40747451     752.62225017     752.83702583     753.05381226     753.28670632     753.52667913     753.76665194     754.00698941     754.26327328     754.52964310     754.79601292     755.06238273     755.44301895     755.94482665     756.44996941     756.95511217     757.53062985     758.24250170     758.96122026     759.67993882     760.44228820     761.38997621     762.34986744     763.30975867     764.27664800     765.43525153     766.60871856     767.78218559     768.95565262     770.15108770     771.35215160     772.55321550     773.75427940     774.93874235     776.11340925     777.28807614     778.46274303     779.53823589     780.49812712     781.45801835     782.41790959     783.30745411     784.02857240     784.74969069     785.47080897     786.14219061     786.64112848     787.12107410     787.60101971     788.04685197     788.33045547     788.57042828     788.81040109     789.05027967     789.28939497     789.52816791     789.76694086     790.00204513     790.09500000     790.09500000     790.09500000     790.09500000     790.09556924     790.09675051     790.09795037     790.09915024     790.25707668     790.71843644     791.19718219     791.67592794     792.15948883     792.66310673     793.16824949     793.67339225     794.18649996     794.88932699     795.60924541     796.32916383     797.04908226     798.12841944     799.30308634     800.47775323     801.65242012     802.69323249     803.65312373     804.61301496     805.57290619     806.42389531     807.14501360     807.86613188     808.58725017     809.30108770     809.99700884     810.69292998     811.38885112     812.08453333     812.77934738     813.47406866     814.16878994     814.83389847     815.35319171     815.83313732     816.31308294     816.81143169     817.46101632     818.17973487     818.89845343     819.61360057     820.20338885     820.70853161     821.21367437     821.71881713     822.33620626     823.07610129     823.82001700     824.56393270     825.15145042     825.43604011     825.70121006     825.96638001     826.22692072     826.46852481     826.70849762     826.94847043     827.18740484     827.40443236     827.61920802     827.83398368     828.04875935     827.90857580     827.67100272     827.43342964     827.19585656     827.09018015     827.06618287     827.04218559     827.01818831     827.20983005     827.66457852     828.11932699     828.57407546     829.02916383     829.48511217     829.94106050     830.39700884     830.85779114     831.33702923     831.81817471     832.29932019     832.78030560     833.26047247     833.74041808     834.22036370     834.69840892     835.16055404     835.61530252     836.07005099     836.52525015     836.99503739     837.47498300     837.95492862     838.43487424     838.91481985     839.39476547     839.87471108     840.35465670     840.76519418     841.04107410     841.30744392     841.57381373     841.87966022     842.34433039     842.82427600     843.30422162     843.79380898     844.46619307     845.15971448     845.85323589     846.54675731     847.98076139     850.14051666     853.02019035     857.33696805     860.81371345     861.10000000     864.84605370     865.07953093     851.14783821     832.38501020     813.28980965     804.96136951     810.92576479     824.25645479     833.97084976     848.65282461     871.92880014     897.21672332     926.75301835