# File generated by Flopy version 3.3.2 on 08/10/2021 at 12:26:43.
BEGIN griddata
  strt  LAYERED
    INTERNAL  FACTOR  1.0
         660.00000000     609.00000000     614.00000000     628.00000000     639.00000000     636.00000000     635.00000000     652.00000000     706.00000000     761.00000000     781.00000000     777.00000000     760.00000000     763.00000000     767.00000000     759.00000000     759.00000000     782.00000000     792.00000000     810.00000000
         827.00000000     827.00000000     837.00000000     856.00000000     864.00000000     810.00000000     843.00000000
         660.00000000     609.00000000     614.00000000     628.00000000     639.00000000     636.00000000     635.00000000     652.00000000     706.00000000     761.00000000     781.00000000     777.00000000     760.00000000     763.00000000     767.00000000     759.00000000     759.00000000     782.00000000     792.00000000     810.00000000
         827.00000000     827.00000000     837.00000000     856.00000000     864.00000000     810.00000000     843.00000000
         660.00000000     609.00000000     614.00000000     628.00000000     639.00000000     636.00000000     635.00000000     652.00000000     706.00000000     761.00000000     781.00000000     777.00000000     760.00000000     763.00000000     767.00000000     759.00000000     759.00000000     782.00000000     792.00000000     810.00000000
         827.00000000     827.00000000     837.00000000     856.00000000     864.00000000     810.00000000     843.00000000
         660.00000000     609.00000000     614.00000000     628.00000000     639.00000000     636.00000000     635.00000000     652.00000000     706.00000000     761.00000000     781.00000000     777.00000000     760.00000000     763.00000000     767.00000000     759.00000000     759.00000000     782.00000000     792.00000000     810.00000000
         827.00000000     827.00000000     837.00000000     856.00000000     864.00000000     810.00000000     843.00000000
         660.00000000     609.00000000     614.00000000     628.00000000     639.00000000     636.00000000     635.00000000     652.00000000     706.00000000     761.00000000     781.00000000     777.00000000     760.00000000     763.00000000     767.00000000     759.00000000     759.00000000     782.00000000     792.00000000     810.00000000
         827.00000000     827.00000000     837.00000000     856.00000000     864.00000000     810.00000000     843.00000000
         660.00000000     609.00000000     614.00000000     628.00000000     639.00000000     636.00000000     635.00000000     652.00000000     706.00000000     761.00000000     781.00000000     777.00000000     760.00000000     763.00000000     767.00000000     759.00000000     759.00000000     782.00000000     792.00000000     810.00000000
         827.00000000     827.00000000     837.00000000     856.00000000     864.00000000     810.00000000     843.00000000
         660.00000000     609.00000000     614.00000000     628.00000000     639.00000000     636.00000000     635.00000000     652.00000000     706.00000000     761.00000000     781.00000000     777.00000000     760.00000000     763.00000000     767.00000000     759.00000000     759.00000000     782.00000000     792.00000000     810.00000000
         827.00000000     827.00000000     837.00000000     856.00000000     864.00000000     810.00000000     843.00000000
         660.00000000     609.00000000     614.00000000     628.00000000     639.00000000     636.00000000     635.00000000     652.00000000     706.00000000     761.00000000     781.00000000     777.00000000     760.00000000     763.00000000     767.00000000     759.00000000     759.00000000     782.00000000     792.00000000     810.00000000
         827.00000000     827.00000000     837.00000000     856.00000000     864.00000000     810.00000000     843.00000000
         660.00000000     609.00000000     614.00000000     628.00000000     639.00000000     636.00000000     635.00000000     652.00000000     706.00000000     761.00000000     781.00000000     777.00000000     760.00000000     763.00000000     767.00000000     759.00000000     759.00000000     782.00000000     792.00000000     810.00000000
         827.00000000     827.00000000     837.00000000     856.00000000     864.00000000     810.00000000     843.00000000
         660.00000000     609.00000000     614.00000000     628.00000000     639.00000000     636.00000000     635.00000000     652.00000000     706.00000000     761.00000000     781.00000000     777.00000000     760.00000000     763.00000000     767.00000000     759.00000000     759.00000000     782.00000000     792.00000000     810.00000000
         827.00000000     827.00000000     837.00000000     856.00000000     864.00000000     810.00000000     843.00000000
         660.00000000     609.00000000     614.00000000     628.00000000     639.00000000     636.00000000     635.00000000     652.00000000     706.00000000     761.00000000     781.00000000     777.00000000     760.00000000     763.00000000     767.00000000     759.00000000     759.00000000     782.00000000     792.00000000     810.00000000
         827.00000000     827.00000000     837.00000000     856.00000000     864.00000000     810.00000000     843.00000000
         660.00000000     609.00000000     614.00000000     628.00000000     639.00000000     636.00000000     635.00000000     652.00000000     706.00000000     761.00000000     781.00000000     777.00000000     760.00000000     763.00000000     767.00000000     759.00000000     759.00000000     782.00000000     792.00000000     810.00000000
         827.00000000     827.00000000     837.00000000     856.00000000     864.00000000     810.00000000     843.00000000
         660.00000000     609.00000000     614.00000000     628.00000000     639.00000000     636.00000000     635.00000000     652.00000000     706.00000000     761.00000000     781.00000000     777.00000000     760.00000000     763.00000000     767.00000000     759.00000000     759.00000000     782.00000000     792.00000000     810.00000000
         827.00000000     827.00000000     837.00000000     856.00000000     864.00000000     810.00000000     843.00000000
         660.00000000     609.00000000     614.00000000     628.00000000     639.00000000     636.00000000     635.00000000     652.00000000     706.00000000     761.00000000     781.00000000     777.00000000     760.00000000     763.00000000     767.00000000     759.00000000     759.00000000     782.00000000     792.00000000     810.00000000
         827.00000000     827.00000000     837.00000000     856.00000000     864.00000000     810.00000000     843.00000000
         660.00000000     609.00000000     614.00000000     628.00000000     639.00000000     636.00000000     635.00000000     652.00000000     706.00000000     761.00000000     781.00000000     777.00000000     760.00000000     763.00000000     767.00000000     759.00000000     759.00000000     782.00000000     792.00000000     810.00000000
         827.00000000     827.00000000     837.00000000     856.00000000     864.00000000     810.00000000     843.00000000
         660.00000000     609.00000000     614.00000000     628.00000000     639.00000000     636.00000000     635.00000000     652.00000000     706.00000000     761.00000000     781.00000000     777.00000000     760.00000000     763.00000000     767.00000000     759.00000000     759.00000000     782.00000000     792.00000000     810.00000000
         827.00000000     827.00000000     837.00000000     856.00000000     864.00000000     810.00000000     843.00000000
         660.00000000     609.00000000     614.00000000     628.00000000     639.00000000     636.00000000     635.00000000     652.00000000     706.00000000     761.00000000     781.00000000     777.00000000     760.00000000     763.00000000     767.00000000     759.00000000     759.00000000     782.00000000     792.00000000     810.00000000
         827.00000000     827.00000000     837.00000000     856.00000000     864.00000000     810.00000000     843.00000000
         660.00000000     609.00000000     614.00000000     628.00000000     639.00000000     636.00000000     635.00000000     652.00000000     706.00000000     761.00000000     781.00000000     777.00000000     760.00000000     763.00000000     767.00000000     759.00000000     759.00000000     782.00000000     792.00000000     810.00000000
         827.00000000     827.00000000     837.00000000     856.00000000     864.00000000     810.00000000     843.00000000
         660.00000000     609.00000000     614.00000000     628.00000000     639.00000000     636.00000000     635.00000000     652.00000000     706.00000000     761.00000000     781.00000000     777.00000000     760.00000000     763.00000000     767.00000000     759.00000000     759.00000000     782.00000000     792.00000000     810.00000000
         827.00000000     827.00000000     837.00000000     856.00000000     864.00000000     810.00000000     843.00000000
         660.00000000     609.00000000     614.00000000     628.00000000     639.00000000     636.00000000     635.00000000     652.00000000     706.00000000     761.00000000     781.00000000     777.00000000     760.00000000     763.00000000     767.00000000     759.00000000     759.00000000     782.00000000     792.00000000     810.00000000
         827.00000000     827.00000000     837.00000000     856.00000000     864.00000000     810.00000000     843.00000000
         660.00000000     609.00000000     614.00000000     628.00000000     639.00000000     636.00000000     635.00000000     652.00000000     706.00000000     761.00000000     781.00000000     777.00000000     760.00000000     763.00000000     767.00000000     759.00000000     759.00000000     782.00000000     792.00000000     810.00000000
         827.00000000     827.00000000     837.00000000     856.00000000     864.00000000     810.00000000     843.00000000
    INTERNAL  FACTOR  1.0
         660.00000000     609.00000000     614.00000000     628.00000000     639.00000000     636.00000000     635.00000000     652.00000000     706.00000000     761.00000000     781.00000000     777.00000000     760.00000000     763.00000000     767.00000000     759.00000000     759.00000000     782.00000000     792.00000000     810.00000000
         827.00000000     827.00000000     837.00000000     856.00000000     864.00000000     810.00000000     843.00000000
         660.00000000     609.00000000     614.00000000     628.00000000     639.00000000     636.00000000     635.00000000     652.00000000     706.00000000     761.00000000     781.00000000     777.00000000     760.00000000     763.00000000     767.00000000     759.00000000     759.00000000     782.00000000     792.00000000     810.00000000
         827.00000000     827.00000000     837.00000000     856.00000000     864.00000000     810.00000000     843.00000000
         660.00000000     609.00000000     614.00000000     628.00000000     639.00000000     636.00000000     635.00000000     652.00000000     706.00000000     761.00000000     781.00000000     777.00000000     760.00000000     763.00000000     767.00000000     759.00000000     759.00000000     782.00000000     792.00000000     810.00000000
         827.00000000     827.00000000     837.00000000     856.00000000     864.00000000     810.00000000     843.00000000
         660.00000000     609.00000000     614.00000000     628.00000000     639.00000000     636.00000000     635.00000000     652.00000000     706.00000000     761.00000000     781.00000000     777.00000000     760.00000000     763.00000000     767.00000000     759.00000000     759.00000000     782.00000000     792.00000000     810.00000000
         827.00000000     827.00000000     837.00000000     856.00000000     864.00000000     810.00000000     843.00000000
         660.00000000     609.00000000     614.00000000     628.00000000     639.00000000     636.00000000     635.00000000     652.00000000     706.00000000     761.00000000     781.00000000     777.00000000     760.00000000     763.00000000     767.00000000     759.00000000     759.00000000     782.00000000     792.00000000     810.00000000
         827.00000000     827.00000000     837.00000000     856.00000000     864.00000000     810.00000000     843.00000000
         660.00000000     609.00000000     614.00000000     628.00000000     639.00000000     636.00000000     635.00000000     652.00000000     706.00000000     761.00000000     781.00000000     777.00000000     760.00000000     763.00000000     767.00000000     759.00000000     759.00000000     782.00000000     792.00000000     810.00000000
         827.00000000     827.00000000     837.00000000     856.00000000     864.00000000     810.00000000     843.00000000
         660.00000000     609.00000000     614.00000000     628.00000000     639.00000000     636.00000000     635.00000000     652.00000000     706.00000000     761.00000000     781.00000000     777.00000000     760.00000000     763.00000000     767.00000000     759.00000000     759.00000000     782.00000000     792.00000000     810.00000000
         827.00000000     827.00000000     837.00000000     856.00000000     864.00000000     810.00000000     843.00000000
         660.00000000     609.00000000     614.00000000     628.00000000     639.00000000     636.00000000     635.00000000     652.00000000     706.00000000     761.00000000     781.00000000     777.00000000     760.00000000     763.00000000     767.00000000     759.00000000     759.00000000     782.00000000     792.00000000     810.00000000
         827.00000000     827.00000000     837.00000000     856.00000000     864.00000000     810.00000000     843.00000000
         660.00000000     609.00000000     614.00000000     628.00000000     639.00000000     636.00000000     635.00000000     652.00000000     706.00000000     761.00000000     781.00000000     777.00000000     760.00000000     763.00000000     767.00000000     759.00000000     759.00000000     782.00000000     792.00000000     810.00000000
         827.00000000     827.00000000     837.00000000     856.00000000     864.00000000     810.00000000     843.00000000
         660.00000000     609.00000000     614.00000000     628.00000000     639.00000000     636.00000000     635.00000000     652.00000000     706.00000000     761.00000000     781.00000000     777.00000000     760.00000000     763.00000000     767.00000000     759.00000000     759.00000000     782.00000000     792.00000000     810.00000000
         827.00000000     827.00000000     837.00000000     856.00000000     864.00000000     810.00000000     843.00000000
         660.00000000     609.00000000     614.00000000     628.00000000     639.00000000     636.00000000     635.00000000     652.00000000     706.00000000     761.00000000     781.00000000     777.00000000     760.00000000     763.00000000     767.00000000     759.00000000     759.00000000     782.00000000     792.00000000     810.00000000
         827.00000000     827.00000000     837.00000000     856.00000000     864.00000000     810.00000000     843.00000000
         660.00000000     609.00000000     614.00000000     628.00000000     639.00000000     636.00000000     635.00000000     652.00000000     706.00000000     761.00000000     781.00000000     777.00000000     760.00000000     763.00000000     767.00000000     759.00000000     759.00000000     782.00000000     792.00000000     810.00000000
         827.00000000     827.00000000     837.00000000     856.00000000     864.00000000     810.00000000     843.00000000
         660.00000000     609.00000000     614.00000000     628.00000000     639.00000000     636.00000000     635.00000000     652.00000000     706.00000000     761.00000000     781.00000000     777.00000000     760.00000000     763.00000000     767.00000000     759.00000000     759.00000000     782.00000000     792.00000000     810.00000000
         827.00000000     827.00000000     837.00000000     856.00000000     864.00000000     810.00000000     843.00000000
         660.00000000     609.00000000     614.00000000     628.00000000     639.00000000     636.00000000     635.00000000     652.00000000     706.00000000     761.00000000     781.00000000     777.00000000     760.00000000     763.00000000     767.00000000     759.00000000     759.00000000     782.00000000     792.00000000     810.00000000
         827.00000000     827.00000000     837.00000000     856.00000000     864.00000000     810.00000000     843.00000000
         660.00000000     609.00000000     614.00000000     628.00000000     639.00000000     636.00000000     635.00000000     652.00000000     706.00000000     761.00000000     781.00000000     777.00000000     760.00000000     763.00000000     767.00000000     759.00000000     759.00000000     782.00000000     792.00000000     810.00000000
         827.00000000     827.00000000     837.00000000     856.00000000     864.00000000     810.00000000     843.00000000
         660.00000000     609.00000000     614.00000000     628.00000000     639.00000000     636.00000000     635.00000000     652.00000000     706.00000000     761.00000000     781.00000000     777.00000000     760.00000000     763.00000000     767.00000000     759.00000000     759.00000000     782.00000000     792.00000000     810.00000000
         827.00000000     827.00000000     837.00000000     856.00000000     864.00000000     810.00000000     843.00000000
         660.00000000     609.00000000     614.00000000     628.00000000     639.00000000     636.00000000     635.00000000     652.00000000     706.00000000     761.00000000     781.00000000     777.00000000     760.00000000     763.00000000     767.00000000     759.00000000     759.00000000     782.00000000     792.00000000     810.00000000
         827.00000000     827.00000000     837.00000000     856.00000000     864.00000000     810.00000000     843.00000000
         660.00000000     609.00000000     614.00000000     628.00000000     639.00000000     636.00000000     635.00000000     652.00000000     706.00000000     761.00000000     781.00000000     777.00000000     760.00000000     763.00000000     767.00000000     759.00000000     759.00000000     782.00000000     792.00000000     810.00000000
         827.00000000     827.00000000     837.00000000     856.00000000     864.00000000     810.00000000     843.00000000
         660.00000000     609.00000000     614.00000000     628.00000000     639.00000000     636.00000000     635.00000000     652.00000000     706.00000000     761.00000000     781.00000000     777.00000000     760.00000000     763.00000000     767.00000000     759.00000000     759.00000000     782.00000000     792.00000000     810.00000000
         827.00000000     827.00000000     837.00000000     856.00000000     864.00000000     810.00000000     843.00000000
         660.00000000     609.00000000     614.00000000     628.00000000     639.00000000     636.00000000     635.00000000     652.00000000     706.00000000     761.00000000     781.00000000     777.00000000     760.00000000     763.00000000     767.00000000     759.00000000     759.00000000     782.00000000     792.00000000     810.00000000
         827.00000000     827.00000000     837.00000000     856.00000000     864.00000000     810.00000000     843.00000000
         660.00000000     609.00000000     614.00000000     628.00000000     639.00000000     636.00000000     635.00000000     652.00000000     706.00000000     761.00000000     781.00000000     777.00000000     760.00000000     763.00000000     767.00000000     759.00000000     759.00000000     782.00000000     792.00000000     810.00000000
         827.00000000     827.00000000     837.00000000     856.00000000     864.00000000     810.00000000     843.00000000
    INTERNAL  FACTOR  1.0
         660.00000000     609.00000000     614.00000000     628.00000000     639.00000000     636.00000000     635.00000000     652.00000000     706.00000000     761.00000000     781.00000000     777.00000000     760.00000000     763.00000000     767.00000000     759.00000000     759.00000000     782.00000000     792.00000000     810.00000000
         827.00000000     827.00000000     837.00000000     856.00000000     864.00000000     810.00000000     843.00000000
         660.00000000     609.00000000     614.00000000     628.00000000     639.00000000     636.00000000     635.00000000     652.00000000     706.00000000     761.00000000     781.00000000     777.00000000     760.00000000     763.00000000     767.00000000     759.00000000     759.00000000     782.00000000     792.00000000     810.00000000
         827.00000000     827.00000000     837.00000000     856.00000000     864.00000000     810.00000000     843.00000000
         660.00000000     609.00000000     614.00000000     628.00000000     639.00000000     636.00000000     635.00000000     652.00000000     706.00000000     761.00000000     781.00000000     777.00000000     760.00000000     763.00000000     767.00000000     759.00000000     759.00000000     782.00000000     792.00000000     810.00000000
         827.00000000     827.00000000     837.00000000     856.00000000     864.00000000     810.00000000     843.00000000
         660.00000000     609.00000000     614.00000000     628.00000000     639.00000000     636.00000000     635.00000000     652.00000000     706.00000000     761.00000000     781.00000000     777.00000000     760.00000000     763.00000000     767.00000000     759.00000000     759.00000000     782.00000000     792.00000000     810.00000000
         827.00000000     827.00000000     837.00000000     856.00000000     864.00000000     810.00000000     843.00000000
         660.00000000     609.00000000     614.00000000     628.00000000     639.00000000     636.00000000     635.00000000     652.00000000     706.00000000     761.00000000     781.00000000     777.00000000     760.00000000     763.00000000     767.00000000     759.00000000     759.00000000     782.00000000     792.00000000     810.00000000
         827.00000000     827.00000000     837.00000000     856.00000000     864.00000000     810.00000000     843.00000000
         660.00000000     609.00000000     614.00000000     628.00000000     639.00000000     636.00000000     635.00000000     652.00000000     706.00000000     761.00000000     781.00000000     777.00000000     760.00000000     763.00000000     767.00000000     759.00000000     759.00000000     782.00000000     792.00000000     810.00000000
         827.00000000     827.00000000     837.00000000     856.00000000     864.00000000     810.00000000     843.00000000
         660.00000000     609.00000000     614.00000000     628.00000000     639.00000000     636.00000000     635.00000000     652.00000000     706.00000000     761.00000000     781.00000000     777.00000000     760.00000000     763.00000000     767.00000000     759.00000000     759.00000000     782.00000000     792.00000000     810.00000000
         827.00000000     827.00000000     837.00000000     856.00000000     864.00000000     810.00000000     843.00000000
         660.00000000     609.00000000     614.00000000     628.00000000     639.00000000     636.00000000     635.00000000     652.00000000     706.00000000     761.00000000     781.00000000     777.00000000     760.00000000     763.00000000     767.00000000     759.00000000     759.00000000     782.00000000     792.00000000     810.00000000
         827.00000000     827.00000000     837.00000000     856.00000000     864.00000000     810.00000000     843.00000000
         660.00000000     609.00000000     614.00000000     628.00000000     639.00000000     636.00000000     635.00000000     652.00000000     706.00000000     761.00000000     781.00000000     777.00000000     760.00000000     763.00000000     767.00000000     759.00000000     759.00000000     782.00000000     792.00000000     810.00000000
         827.00000000     827.00000000     837.00000000     856.00000000     864.00000000     810.00000000     843.00000000
         660.00000000     609.00000000     614.00000000     628.00000000     639.00000000     636.00000000     635.00000000     652.00000000     706.00000000     761.00000000     781.00000000     777.00000000     760.00000000     763.00000000     767.00000000     759.00000000     759.00000000     782.00000000     792.00000000     810.00000000
         827.00000000     827.00000000     837.00000000     856.00000000     864.00000000     810.00000000     843.00000000
         660.00000000     609.00000000     614.00000000     628.00000000     639.00000000     636.00000000     635.00000000     652.00000000     706.00000000     761.00000000     781.00000000     777.00000000     760.00000000     763.00000000     767.00000000     759.00000000     759.00000000     782.00000000     792.00000000     810.00000000
         827.00000000     827.00000000     837.00000000     856.00000000     864.00000000     810.00000000     843.00000000
         660.00000000     609.00000000     614.00000000     628.00000000     639.00000000     636.00000000     635.00000000     652.00000000     706.00000000     761.00000000     781.00000000     777.00000000     760.00000000     763.00000000     767.00000000     759.00000000     759.00000000     782.00000000     792.00000000     810.00000000
         827.00000000     827.00000000     837.00000000     856.00000000     864.00000000     810.00000000     843.00000000
         660.00000000     609.00000000     614.00000000     628.00000000     639.00000000     636.00000000     635.00000000     652.00000000     706.00000000     761.00000000     781.00000000     777.00000000     760.00000000     763.00000000     767.00000000     759.00000000     759.00000000     782.00000000     792.00000000     810.00000000
         827.00000000     827.00000000     837.00000000     856.00000000     864.00000000     810.00000000     843.00000000
         660.00000000     609.00000000     614.00000000     628.00000000     639.00000000     636.00000000     635.00000000     652.00000000     706.00000000     761.00000000     781.00000000     777.00000000     760.00000000     763.00000000     767.00000000     759.00000000     759.00000000     782.00000000     792.00000000     810.00000000
         827.00000000     827.00000000     837.00000000     856.00000000     864.00000000     810.00000000     843.00000000
         660.00000000     609.00000000     614.00000000     628.00000000     639.00000000     636.00000000     635.00000000     652.00000000     706.00000000     761.00000000     781.00000000     777.00000000     760.00000000     763.00000000     767.00000000     759.00000000     759.00000000     782.00000000     792.00000000     810.00000000
         827.00000000     827.00000000     837.00000000     856.00000000     864.00000000     810.00000000     843.00000000
         660.00000000     609.00000000     614.00000000     628.00000000     639.00000000     636.00000000     635.00000000     652.00000000     706.00000000     761.00000000     781.00000000     777.00000000     760.00000000     763.00000000     767.00000000     759.00000000     759.00000000     782.00000000     792.00000000     810.00000000
         827.00000000     827.00000000     837.00000000     856.00000000     864.00000000     810.00000000     843.00000000
         660.00000000     609.00000000     614.00000000     628.00000000     639.00000000     636.00000000     635.00000000     652.00000000     706.00000000     761.00000000     781.00000000     777.00000000     760.00000000     763.00000000     767.00000000     759.00000000     759.00000000     782.00000000     792.00000000     810.00000000
         827.00000000     827.00000000     837.00000000     856.00000000     864.00000000     810.00000000     843.00000000
         660.00000000     609.00000000     614.00000000     628.00000000     639.00000000     636.00000000     635.00000000     652.00000000     706.00000000     761.00000000     781.00000000     777.00000000     760.00000000     763.00000000     767.00000000     759.00000000     759.00000000     782.00000000     792.00000000     810.00000000
         827.00000000     827.00000000     837.00000000     856.00000000     864.00000000     810.00000000     843.00000000
         660.00000000     609.00000000     614.00000000     628.00000000     639.00000000     636.00000000     635.00000000     652.00000000     706.00000000     761.00000000     781.00000000     777.00000000     760.00000000     763.00000000     767.00000000     759.00000000     759.00000000     782.00000000     792.00000000     810.00000000
         827.00000000     827.00000000     837.00000000     856.00000000     864.00000000     810.00000000     843.00000000
         660.00000000     609.00000000     614.00000000     628.00000000     639.00000000     636.00000000     635.00000000     652.00000000     706.00000000     761.00000000     781.00000000     777.00000000     760.00000000     763.00000000     767.00000000     759.00000000     759.00000000     782.00000000     792.00000000     810.00000000
         827.00000000     827.00000000     837.00000000     856.00000000     864.00000000     810.00000000     843.00000000
         660.00000000     609.00000000     614.00000000     628.00000000     639.00000000     636.00000000     635.00000000     652.00000000     706.00000000     761.00000000     781.00000000     777.00000000     760.00000000     763.00000000     767.00000000     759.00000000     759.00000000     782.00000000     792.00000000     810.00000000
         827.00000000     827.00000000     837.00000000     856.00000000     864.00000000     810.00000000     843.00000000
    INTERNAL  FACTOR  1.0