# File generated by Flopy version 3.3.4 on 11/27/2021 at 23:24:32.
BEGIN options
  COMPLEXITY  complex
END options

