# File generated by Flopy version 3.3.4 on 11/27/2021 at 23:24:34.
BEGIN options
  BOUNDNAMES
  PRINT_INPUT
  PRINT_FLOWS
  SAVE_FLOWS
  OBS6  FILEIN  modelo_Norte_gal_w.drn.obs
END options

BEGIN dimensions
  MAXBOUND  13
END dimensions

BEGIN period  1225
END period  1225

BEGIN period  1236
  1 43 51     774.96449461  7.50205104E-06  gal_w_flow
END period  1236

BEGIN period  1250
  1 43 51     774.96449461  7.50205104E-06  gal_w_flow
  1 41 61     773.59466941  7.50205104E-06  gal_w_flow
END period  1250

BEGIN period  1265
  1 43 51     774.96449461  7.50205104E-06  gal_w_flow
  1 41 61     773.59466941  7.50205104E-06  gal_w_flow
  1 40 71     780.19472925  7.50205104E-06  gal_w_flow
END period  1265

BEGIN period  1282
  1 43 51     774.96449461  7.50205104E-06  gal_w_flow
  1 41 61     773.59466941  7.50205104E-06  gal_w_flow
  1 40 71     780.19472925  7.50205104E-06  gal_w_flow
  1 39 77     787.77372200  7.50205104E-06  gal_w_flow
  2 39 77     761.59423268  7.50205104E-06  gal_w_flow
END period  1282

BEGIN period  1300
  1 43 51     774.96449461  7.50205104E-06  gal_w_flow
  1 41 61     773.59466941  7.50205104E-06  gal_w_flow
  1 40 71     780.19472925  7.50205104E-06  gal_w_flow
  1 39 77     787.77372200  7.50205104E-06  gal_w_flow
  2 39 77     761.59423268  7.50205104E-06  gal_w_flow
  1 39 81     792.90775971  7.50205104E-06  gal_w_flow
  2 39 81     769.27149815  7.50205104E-06  gal_w_flow
END period  1300

BEGIN period  1320
  1 43 51     774.96449461  7.50205104E-06  gal_w_flow
  1 41 61     773.59466941  7.50205104E-06  gal_w_flow
  1 40 71     780.19472925  7.50205104E-06  gal_w_flow
  1 39 77     787.77372200  7.50205104E-06  gal_w_flow
  2 39 77     761.59423268  7.50205104E-06  gal_w_flow
  1 39 81     792.90775971  7.50205104E-06  gal_w_flow
  2 39 81     769.27149815  7.50205104E-06  gal_w_flow
  1 38 85     797.09680591  7.50205104E-06  gal_w_flow
  2 38 85     789.13735418  7.50205104E-06  gal_w_flow
  3 38 85     781.17790245  7.50205104E-06  gal_w_flow
END period  1320

BEGIN period  1341
  1 43 51     774.96449461  7.50205104E-06  gal_w_flow
  1 41 61     773.59466941  7.50205104E-06  gal_w_flow
  1 40 71     780.19472925  7.50205104E-06  gal_w_flow
  1 39 77     787.77372200  7.50205104E-06  gal_w_flow
  2 39 77     761.59423268  7.50205104E-06  gal_w_flow
  1 39 81     792.90775971  7.50205104E-06  gal_w_flow
  2 39 81     769.27149815  7.50205104E-06  gal_w_flow
  1 38 85     797.09680591  7.50205104E-06  gal_w_flow
  2 38 85     789.13735418  7.50205104E-06  gal_w_flow
  3 38 85     781.17790245  7.50205104E-06  gal_w_flow
  1 37 92     815.19253445  7.50205104E-06  gal_w_flow
  2 37 92     799.19857145  7.50205104E-06  gal_w_flow
  3 37 92     783.20460846  7.50205104E-06  gal_w_flow
END period  1341

