# File generated by Flopy version 3.3.4 on 11/21/2021 at 20:34:01.
BEGIN options
END options

BEGIN continuous  FILEOUT  mod_drn_gal_w_obs.csv
  gal_w-flow  drn  gal_w_flow
END continuous  FILEOUT  mod_drn_gal_w_obs.csv

