# File generated by Flopy version 3.3.4 on 11/21/2021 at 20:34:01.
BEGIN options
  BOUNDNAMES
  PRINT_INPUT
  PRINT_FLOWS
  SAVE_FLOWS
  OBS6  FILEIN  modelo_Norte_gal_w.drn.obs
END options

BEGIN dimensions
  MAXBOUND  13
END dimensions

BEGIN period  1135
  1 15 17     759.19438811  7.50205104E-06  gal_w_flow
END period  1135

BEGIN period  1146
  1 15 17     759.19438811  7.50205104E-06  gal_w_flow
  1 15 18     781.00422038  7.50205104E-06  gal_w_flow
END period  1146

BEGIN period  1160
  1 15 17     759.19438811  7.50205104E-06  gal_w_flow
  1 15 18     781.00422038  7.50205104E-06  gal_w_flow
  1 15 19     775.90000604  7.50205104E-06  gal_w_flow
END period  1160

BEGIN period  1175
  1 15 17     759.19438811  7.50205104E-06  gal_w_flow
  1 15 18     781.00422038  7.50205104E-06  gal_w_flow
  1 15 19     775.90000604  7.50205104E-06  gal_w_flow
  1 14 20     775.37648861  7.50205104E-06  gal_w_flow
  2 14 20     751.69215587  7.50205104E-06  gal_w_flow
END period  1175

BEGIN period  1192
  1 15 17     759.19438811  7.50205104E-06  gal_w_flow
  1 15 18     781.00422038  7.50205104E-06  gal_w_flow
  1 15 19     775.90000604  7.50205104E-06  gal_w_flow
  1 14 20     775.37648861  7.50205104E-06  gal_w_flow
  2 14 20     751.69215587  7.50205104E-06  gal_w_flow
  1 14 21     786.58872883  7.50205104E-06  gal_w_flow
  2 14 21     761.07551526  7.50205104E-06  gal_w_flow
END period  1192

BEGIN period  1210
  1 15 17     759.19438811  7.50205104E-06  gal_w_flow
  1 15 18     781.00422038  7.50205104E-06  gal_w_flow
  1 15 19     775.90000604  7.50205104E-06  gal_w_flow
  1 14 20     775.37648861  7.50205104E-06  gal_w_flow
  2 14 20     751.69215587  7.50205104E-06  gal_w_flow
  1 14 21     786.58872883  7.50205104E-06  gal_w_flow
  2 14 21     761.07551526  7.50205104E-06  gal_w_flow
  1 14 22     796.83750011  7.50205104E-06  gal_w_flow
  2 14 22     787.76864418  7.50205104E-06  gal_w_flow
  3 14 22     778.69978825  7.50205104E-06  gal_w_flow
END period  1210

BEGIN period  1230
  1 15 17     759.19438811  7.50205104E-06  gal_w_flow
  1 15 18     781.00422038  7.50205104E-06  gal_w_flow
  1 15 19     775.90000604  7.50205104E-06  gal_w_flow
  1 14 20     775.37648861  7.50205104E-06  gal_w_flow
  2 14 20     751.69215587  7.50205104E-06  gal_w_flow
  1 14 21     786.58872883  7.50205104E-06  gal_w_flow
  2 14 21     761.07551526  7.50205104E-06  gal_w_flow
  1 14 22     796.83750011  7.50205104E-06  gal_w_flow
  2 14 22     787.76864418  7.50205104E-06  gal_w_flow
  3 14 22     778.69978825  7.50205104E-06  gal_w_flow
  1 14 23     823.50189209  7.50205104E-06  gal_w_flow
  2 14 23     802.36686799  7.50205104E-06  gal_w_flow
  3 14 23     781.23184390  7.50205104E-06  gal_w_flow
END period  1230

