# File generated by Flopy version 3.3.2 on 05/27/2021 at 10:50:17.
BEGIN options
  COMPLEXITY  simple
END options

