# File generated by Flopy version 3.3.4 on 11/27/2021 at 21:53:52.
BEGIN options
  BOUNDNAMES
  PRINT_INPUT
  PRINT_FLOWS
  SAVE_FLOWS
  OBS6  FILEIN  modelo_Norte_gal.drn.obs
END options

BEGIN dimensions
  MAXBOUND  9
END dimensions

BEGIN period  1192
  1 15 16     748.00000000  9.26064570E-05  gal_flow
END period  1192

BEGIN period  1229
  1 15 16     748.00000000  9.26064570E-05  gal_flow
  2 15 17     748.12344152  6.04924177E-04  gal_flow
END period  1229

BEGIN period  1265
  1 15 16     748.00000000  9.26064570E-05  gal_flow
  2 15 17     748.12344152  6.04924177E-04  gal_flow
  3 15 18     748.92978657  6.04924177E-04  gal_flow
END period  1265

BEGIN period  1302
  1 15 16     748.00000000  9.26064570E-05  gal_flow
  2 15 17     748.12344152  6.04924177E-04  gal_flow
  3 15 18     748.92978657  6.04924177E-04  gal_flow
  3 15 19     749.73613163  6.04924177E-04  gal_flow
END period  1302

BEGIN period  1320
  1 15 16     748.00000000  9.26064570E-05  gal_flow
  2 15 17     748.12344152  6.04924177E-04  gal_flow
  3 15 18     748.92978657  6.04924177E-04  gal_flow
  3 15 19     749.73613163  6.04924177E-04  gal_flow
  3 15 20     750.54247669  2.89073012E-04  gal_flow
END period  1320

BEGIN period  1339
  1 15 16     748.00000000  9.26064570E-05  gal_flow
  2 15 17     748.12344152  6.04924177E-04  gal_flow
  3 15 18     748.92978657  6.04924177E-04  gal_flow
  3 15 19     749.73613163  6.04924177E-04  gal_flow
  3 15 20     750.54247669  2.89073012E-04  gal_flow
  3 14 20     750.92780200  3.15851165E-04  gal_flow
END period  1339

BEGIN period  1375
  1 15 16     748.00000000  9.26064570E-05  gal_flow
  2 15 17     748.12344152  6.04924177E-04  gal_flow
  3 15 18     748.92978657  6.04924177E-04  gal_flow
  3 15 19     749.73613163  6.04924177E-04  gal_flow
  3 15 20     750.54247669  2.89073012E-04  gal_flow
  3 14 20     750.92780200  3.15851165E-04  gal_flow
  3 14 21     751.34882174  6.04924177E-04  gal_flow
END period  1375

BEGIN period  1412
  1 15 16     748.00000000  9.26064570E-05  gal_flow
  2 15 17     748.12344152  6.04924177E-04  gal_flow
  3 15 18     748.92978657  6.04924177E-04  gal_flow
  3 15 19     749.73613163  6.04924177E-04  gal_flow
  3 15 20     750.54247669  2.89073012E-04  gal_flow
  3 14 20     750.92780200  3.15851165E-04  gal_flow
  3 14 21     751.34882174  6.04924177E-04  gal_flow
  4 14 22     752.15516680  6.04924177E-04  gal_flow
END period  1412

BEGIN period  1425
  1 15 16     748.00000000  9.26064570E-05  gal_flow
  2 15 17     748.12344152  6.04924177E-04  gal_flow
  3 15 18     748.92978657  6.04924177E-04  gal_flow
  3 15 19     749.73613163  6.04924177E-04  gal_flow
  3 15 20     750.54247669  2.89073012E-04  gal_flow
  3 14 20     750.92780200  3.15851165E-04  gal_flow
  3 14 21     751.34882174  6.04924177E-04  gal_flow
  4 14 22     752.15516680  6.04924177E-04  gal_flow
  4 14 23     752.96151186  2.16425277E-04  gal_flow
END period  1425

