# File generated by Flopy version 3.3.4 on 11/19/2021 at 11:49:34.
BEGIN options
  TIME_UNITS  seconds
END options

BEGIN dimensions
  NPER  1460
END dimensions

BEGIN perioddata
       1.00000000  1       1.00000000
   86400.00000000  1       1.00000000
   86400.00000000  1       1.00000000
   86400.00000000  1       1.00000000
   86400.00000000  1       1.00000000
   86400.00000000  1       1.00000000
   86400.00000000  1       1.00000000
   86400.00000000  1       1.00000000
   86400.00000000  1       1.00000000
   86400.00000000  1       1.00000000
   86400.00000000  1       1.00000000
   86400.00000000  1       1.00000000
   86400.00000000  1       1.00000000
   86400.00000000  1       1.00000000
   86400.00000000  1       1.00000000
   86400.00000000  1       1.00000000
   86400.00000000  1       1.00000000
   86400.00000000  1       1.00000000
   86400.00000000  1       1.00000000
   86400.00000000  1       1.00000000
   86400.00000000  1       1.00000000
   86400.00000000  1       1.00000000
   86400.00000000  1       1.00000000
   86400.00000000  1       1.00000000
   86400.00000000  1       1.00000000
   86400.00000000  1       1.00000000
   86400.00000000  1       1.00000000
   86400.00000000  1       1.00000000
   86400.00000000  1       1.00000000
   86400.00000000  1       1.00000000
   86400.00000000  1       1.00000000
   86400.00000000  1       1.00000000
   86400.00000000  1       1.00000000
   86400.00000000  1       1.00000000
   86400.00000000  1       1.00000000
   86400.00000000  1       1.00000000
   86400.00000000  1       1.00000000
   86400.00000000  1       1.00000000
   86400.00000000  1       1.00000000
   86400.00000000  1       1.00000000
   86400.00000000  1       1.00000000
   86400.00000000  1       1.00000000
   86400.00000000  1       1.00000000
   86400.00000000  1       1.00000000
   86400.00000000  1       1.00000000
   86400.00000000  1       1.00000000
   86400.00000000  1       1.00000000
   86400.00000000  1       1.00000000
   86400.00000000  1       1.00000000
   86400.00000000  1       1.00000000
   86400.00000000  1       1.00000000
   86400.00000000  1       1.00000000
   86400.00000000  1       1.00000000
   86400.00000000  1       1.00000000
   86400.00000000  1       1.00000000
   86400.00000000  1       1.00000000
   86400.00000000  1       1.00000000
   86400.00000000  1       1.00000000
   86400.00000000  1       1.00000000
   86400.00000000  1       1.00000000
   86400.00000000  1       1.00000000
   86400.00000000  1       1.00000000
   86400.00000000  1       1.00000000
   86400.00000000  1       1.00000000
   86400.00000000  1       1.00000000
   86400.00000000  1       1.00000000
   86400.00000000  1       1.00000000
   86400.00000000  1       1.00000000
   86400.00000000  1       1.00000000
   86400.00000000  1       1.00000000
   86400.00000000  1       1.00000000
   86400.00000000  1       1.00000000
   86400.00000000  1       1.00000000
   86400.00000000  1       1.00000000
   86400.00000000  1       1.00000000
   86400.00000000  1       1.00000000
   86400.00000000  1       1.00000000
   86400.00000000  1       1.00000000
   86400.00000000  1       1.00000000
   86400.00000000  1       1.00000000
   86400.00000000  1       1.00000000
   86400.00000000  1       1.00000000
   86400.00000000  1       1.00000000
   86400.00000000  1       1.00000000
   86400.00000000  1       1.00000000
   86400.00000000  1       1.00000000
   86400.00000000  1       1.00000000
   86400.00000000  1       1.00000000
   86400.00000000  1       1.00000000
   86400.00000000  1       1.00000000
   86400.00000000  1       1.00000000
   86400.00000000  1       1.00000000
   86400.00000000  1       1.00000000
   86400.00000000  1       1.00000000
   86400.00000000  1       1.00000000
   86400.00000000  1       1.00000000
   86400.00000000  1       1.00000000
   86400.00000000  1       1.00000000
   86400.00000000  1       1.00000000
   86400.00000000  1       1.00000000
   86400.00000000  1       1.00000000
   86400.00000000  1       1.00000000
   86400.00000000  1       1.00000000
   86400.00000000  1       1.00000000
   86400.00000000  1       1.00000000
   86400.00000000  1       1.00000000
   86400.00000000  1       1.00000000
   86400.00000000  1       1.00000000
   86400.00000000  1       1.00000000
   86400.00000000  1       1.00000000
   86400.00000000  1       1.00000000
   86400.00000000  1       1.00000000
   86400.00000000  1       1.00000000
   86400.00000000  1       1.00000000
   86400.00000000  1       1.00000000
   86400.00000000  1       1.00000000
   86400.00000000  1       1.00000000
   86400.00000000  1       1.00000000
   86400.00000000  1       1.00000000
   86400.00000000  1       1.00000000
   86400.00000000  1       1.00000000
   86400.00000000  1       1.00000000
   86400.00000000  1       1.00000000
   86400.00000000  1       1.00000000
   86400.00000000  1       1.00000000
   86400.00000000  1       1.00000000
   86400.00000000  1       1.00000000
   86400.00000000  1       1.00000000
   86400.00000000  1       1.00000000
   86400.00000000  1       1.00000000
   86400.00000000  1       1.00000000
   86400.00000000  1       1.00000000
   86400.00000000  1       1.00000000
   86400.00000000  1       1.00000000
   86400.00000000  1       1.00000000
   86400.00000000  1       1.00000000
   86400.00000000  1       1.00000000
   86400.00000000  1       1.00000000
   86400.00000000  1       1.00000000
   86400.00000000  1       1.00000000
   86400.00000000  1       1.00000000
   86400.00000000  1       1.00000000
   86400.00000000  1       1.00000000
   86400.00000000  1       1.00000000
   86400.00000000  1       1.00000000
   86400.00000000  1       1.00000000
   86400.00000000  1       1.00000000
   86400.00000000  1       1.00000000
   86400.00000000  1       1.00000000
   86400.00000000  1       1.00000000
   86400.00000000  1       1.00000000
   86400.00000000  1       1.00000000
   86400.00000000  1       1.00000000
   86400.00000000  1       1.00000000
   86400.00000000  1       1.00000000
   86400.00000000  1       1.00000000
   86400.00000000  1       1.00000000
   86400.00000000  1       1.00000000
   86400.00000000  1       1.00000000
   86400.00000000  1       1.00000000
   86400.00000000  1       1.00000000
   86400.00000000  1       1.00000000
   86400.00000000  1       1.00000000
   86400.00000000  1       1.00000000
   86400.00000000  1       1.00000000
   86400.00000000  1       1.00000000
   86400.00000000  1       1.00000000
   86400.00000000  1       1.00000000
   86400.00000000  1       1.00000000
   86400.00000000  1       1.00000000
   86400.00000000  1       1.00000000
   86400.00000000  1       1.00000000
   86400.00000000  1       1.00000000
   86400.00000000  1       1.00000000
   86400.00000000  1       1.00000000
   86400.00000000  1       1.00000000
   86400.00000000  1       1.00000000
   86400.00000000  1       1.00000000
   86400.00000000  1       1.00000000
   86400.00000000  1       1.00000000
   86400.00000000  1       1.00000000
   86400.00000000  1       1.00000000
   86400.00000000  1       1.00000000
   86400.00000000  1       1.00000000
   86400.00000000  1       1.00000000
   86400.00000000  1       1.00000000
   86400.00000000  1       1.00000000
   86400.00000000  1       1.00000000
   86400.00000000  1       1.00000000
   86400.00000000  1       1.00000000
   86400.00000000  1       1.00000000
   86400.00000000  1       1.00000000
   86400.00000000  1       1.00000000
   86400.00000000  1       1.00000000
   86400.00000000  1       1.00000000
   86400.00000000  1       1.00000000
   86400.00000000  1       1.00000000
   86400.00000000  1       1.00000000
   86400.00000000  1       1.00000000
   86400.00000000  1       1.00000000
   86400.00000000  1       1.00000000
   86400.00000000  1       1.00000000
   86400.00000000  1       1.00000000
   86400.00000000  1       1.00000000
   86400.00000000  1       1.00000000
   86400.00000000  1       1.00000000
   86400.00000000  1       1.00000000
   86400.00000000  1       1.00000000
   86400.00000000  1       1.00000000
   86400.00000000  1       1.00000000
   86400.00000000  1       1.00000000
   86400.00000000  1       1.00000000
   86400.00000000  1       1.00000000
   86400.00000000  1       1.00000000
   86400.00000000  1       1.00000000
   86400.00000000  1       1.00000000
   86400.00000000  1       1.00000000
   86400.00000000  1       1.00000000
   86400.00000000  1       1.00000000
   86400.00000000  1       1.00000000
   86400.00000000  1       1.00000000
   86400.00000000  1       1.00000000
   86400.00000000  1       1.00000000
   86400.00000000  1       1.00000000
   86400.00000000  1       1.00000000
   86400.00000000  1       1.00000000
   86400.00000000  1       1.00000000
   86400.00000000  1       1.00000000
   86400.00000000  1       1.00000000
   86400.00000000  1       1.00000000
   86400.00000000  1       1.00000000
   86400.00000000  1       1.00000000
   86400.00000000  1       1.00000000
   86400.00000000  1       1.00000000
   86400.00000000  1       1.00000000
   86400.00000000  1       1.00000000
   86400.00000000  1       1.00000000
   86400.00000000  1       1.00000000
   86400.00000000  1       1.00000000
   86400.00000000  1       1.00000000
   86400.00000000  1       1.00000000
   86400.00000000  1       1.00000000
   86400.00000000  1       1.00000000
   86400.00000000  1       1.00000000
   86400.00000000  1       1.00000000
   86400.00000000  1       1.00000000
   86400.00000000  1       1.00000000
   86400.00000000  1       1.00000000
   86400.00000000  1       1.00000000
   86400.00000000  1       1.00000000
   86400.00000000  1       1.00000000
   86400.00000000  1       1.00000000
   86400.00000000  1       1.00000000
   86400.00000000  1       1.00000000
   86400.00000000  1       1.00000000
   86400.00000000  1       1.00000000
   86400.00000000  1       1.00000000
   86400.00000000  1       1.00000000
   86400.00000000  1       1.00000000
   86400.00000000  1       1.00000000
   86400.00000000  1       1.00000000
   86400.00000000  1       1.00000000
   86400.00000000  1       1.00000000
   86400.00000000  1       1.00000000
   86400.00000000  1       1.00000000
   86400.00000000  1       1.00000000
   86400.00000000  1       1.00000000
   86400.00000000  1       1.00000000
   86400.00000000  1       1.00000000
   86400.00000000  1       1.00000000
   86400.00000000  1       1.00000000
   86400.00000000  1       1.00000000
   86400.00000000  1       1.00000000
   86400.00000000  1       1.00000000
   86400.00000000  1       1.00000000
   86400.00000000  1       1.00000000
   86400.00000000  1       1.00000000
   86400.00000000  1       1.00000000
   86400.00000000  1       1.00000000
   86400.00000000  1       1.00000000
   86400.00000000  1       1.00000000
   86400.00000000  1       1.00000000
   86400.00000000  1       1.00000000
   86400.00000000  1       1.00000000
   86400.00000000  1       1.00000000
   86400.00000000  1       1.00000000
   86400.00000000  1       1.00000000
   86400.00000000  1       1.00000000
   86400.00000000  1       1.00000000
   86400.00000000  1       1.00000000
   86400.00000000  1       1.00000000
   86400.00000000  1       1.00000000
   86400.00000000  1       1.00000000
   86400.00000000  1       1.00000000
   86400.00000000  1       1.00000000
   86400.00000000  1       1.00000000
   86400.00000000  1       1.00000000
   86400.00000000  1       1.00000000
   86400.00000000  1       1.00000000
   86400.00000000  1       1.00000000
   86400.00000000  1       1.00000000
   86400.00000000  1       1.00000000
   86400.00000000  1       1.00000000
   86400.00000000  1       1.00000000
   86400.00000000  1       1.00000000
   86400.00000000  1       1.00000000
   86400.00000000  1       1.00000000
   86400.00000000  1       1.00000000
   86400.00000000  1       1.00000000
   86400.00000000  1       1.00000000
   86400.00000000  1       1.00000000
   86400.00000000  1       1.00000000
   86400.00000000  1       1.00000000
   86400.00000000  1       1.00000000
   86400.00000000  1       1.00000000
   86400.00000000  1       1.00000000
   86400.00000000  1       1.00000000
   86400.00000000  1       1.00000000
   86400.00000000  1       1.00000000
   86400.00000000  1       1.00000000
   86400.00000000  1       1.00000000
   86400.00000000  1       1.00000000
   86400.00000000  1       1.00000000
   86400.00000000  1       1.00000000
   86400.00000000  1       1.00000000
   86400.00000000  1       1.00000000
   86400.00000000  1       1.00000000
   86400.00000000  1       1.00000000
   86400.00000000  1       1.00000000
   86400.00000000  1       1.00000000
   86400.00000000  1       1.00000000
   86400.00000000  1       1.00000000
   86400.00000000  1       1.00000000
   86400.00000000  1       1.00000000
   86400.00000000  1       1.00000000
   86400.00000000  1       1.00000000
   86400.00000000  1       1.00000000
   86400.00000000  1       1.00000000
   86400.00000000  1       1.00000000
   86400.00000000  1       1.00000000
   86400.00000000  1       1.00000000
   86400.00000000  1       1.00000000
   86400.00000000  1       1.00000000
   86400.00000000  1       1.00000000
   86400.00000000  1       1.00000000
   86400.00000000  1       1.00000000
   86400.00000000  1       1.00000000
   86400.00000000  1       1.00000000
   86400.00000000  1       1.00000000
   86400.00000000  1       1.00000000
   86400.00000000  1       1.00000000
   86400.00000000  1       1.00000000
   86400.00000000  1       1.00000000
   86400.00000000  1       1.00000000
   86400.00000000  1       1.00000000
   86400.00000000  1       1.00000000
   86400.00000000  1       1.00000000
   86400.00000000  1       1.00000000
   86400.00000000  1       1.00000000
   86400.00000000  1       1.00000000
   86400.00000000  1       1.00000000
   86400.00000000  1       1.00000000
   86400.00000000  1       1.00000000
   86400.00000000  1       1.00000000
   86400.00000000  1       1.00000000
   86400.00000000  1       1.00000000
   86400.00000000  1       1.00000000
   86400.00000000  1       1.00000000
   86400.00000000  1       1.00000000
   86400.00000000  1       1.00000000
   86400.00000000  1       1.00000000
   86400.00000000  1       1.00000000
   86400.00000000  1       1.00000000
   86400.00000000  1       1.00000000
   86400.00000000  1       1.00000000
   86400.00000000  1       1.00000000
   86400.00000000  1       1.00000000
   86400.00000000  1       1.00000000
   86400.00000000  1       1.00000000
   86400.00000000  1       1.00000000
   86400.00000000  1       1.00000000
   86400.00000000  1       1.00000000
   86400.00000000  1       1.00000000
   86400.00000000  1       1.00000000
   86400.00000000  1       1.00000000
   86400.00000000  1       1.00000000
   86400.00000000  1       1.00000000
   86400.00000000  1       1.00000000
   86400.00000000  1       1.00000000
   86400.00000000  1       1.00000000
   86400.00000000  1       1.00000000
   86400.00000000  1       1.00000000
   86400.00000000  1       1.00000000
   86400.00000000  1       1.00000000
   86400.00000000  1       1.00000000
   86400.00000000  1       1.00000000
   86400.00000000  1       1.00000000
   86400.00000000  1       1.00000000
   86400.00000000  1       1.00000000
   86400.00000000  1       1.00000000
   86400.00000000  1       1.00000000
   86400.00000000  1       1.00000000
   86400.00000000  1       1.00000000
   86400.00000000  1       1.00000000
   86400.00000000  1       1.00000000
   86400.00000000  1       1.00000000
   86400.00000000  1       1.00000000
   86400.00000000  1       1.00000000
   86400.00000000  1       1.00000000
   86400.00000000  1       1.00000000
   86400.00000000  1       1.00000000
   86400.00000000  1       1.00000000
   86400.00000000  1       1.00000000
   86400.00000000  1       1.00000000
   86400.00000000  1       1.00000000
   86400.00000000  1       1.00000000
   86400.00000000  1       1.00000000
   86400.00000000  1       1.00000000
   86400.00000000  1       1.00000000
   86400.00000000  1       1.00000000
   86400.00000000  1       1.00000000
   86400.00000000  1       1.00000000
   86400.00000000  1       1.00000000
   86400.00000000  1       1.00000000
   86400.00000000  1       1.00000000
   86400.00000000  1       1.00000000
   86400.00000000  1       1.00000000
   86400.00000000  1       1.00000000
   86400.00000000  1       1.00000000
   86400.00000000  1       1.00000000
   86400.00000000  1       1.00000000
   86400.00000000  1       1.00000000
   86400.00000000  1       1.00000000
   86400.00000000  1       1.00000000
   86400.00000000  1       1.00000000
   86400.00000000  1       1.00000000
   86400.00000000  1       1.00000000
   86400.00000000  1       1.00000000
   86400.00000000  1       1.00000000
   86400.00000000  1       1.00000000
   86400.00000000  1       1.00000000
   86400.00000000  1       1.00000000
   86400.00000000  1       1.00000000
   86400.00000000  1       1.00000000
   86400.00000000  1       1.00000000
   86400.00000000  1       1.00000000
   86400.00000000  1       1.00000000
   86400.00000000  1       1.00000000
   86400.00000000  1       1.00000000
   86400.00000000  1       1.00000000
   86400.00000000  1       1.00000000
   86400.00000000  1       1.00000000
   86400.00000000  1       1.00000000
   86400.00000000  1       1.00000000
   86400.00000000  1       1.00000000
   86400.00000000  1       1.00000000
   86400.00000000  1       1.00000000
   86400.00000000  1       1.00000000
   86400.00000000  1       1.00000000
   86400.00000000  1       1.00000000
   86400.00000000  1       1.00000000
   86400.00000000  1       1.00000000
   86400.00000000  1       1.00000000
   86400.00000000  1       1.00000000
   86400.00000000  1       1.00000000
   86400.00000000  1       1.00000000
   86400.00000000  1       1.00000000
   86400.00000000  1       1.00000000
   86400.00000000  1       1.00000000
   86400.00000000  1       1.00000000
   86400.00000000  1       1.00000000
   86400.00000000  1       1.00000000
   86400.00000000  1       1.00000000
   86400.00000000  1       1.00000000
   86400.00000000  1       1.00000000
   86400.00000000  1       1.00000000
   86400.00000000  1       1.00000000
   86400.00000000  1       1.00000000
   86400.00000000  1       1.00000000
   86400.00000000  1       1.00000000
   86400.00000000  1       1.00000000
   86400.00000000  1       1.00000000
   86400.00000000  1       1.00000000
   86400.00000000  1       1.00000000
   86400.00000000  1       1.00000000
   86400.00000000  1       1.00000000
   86400.00000000  1       1.00000000
   86400.00000000  1       1.00000000
   86400.00000000  1       1.00000000
   86400.00000000  1       1.00000000
   86400.00000000  1       1.00000000
   86400.00000000  1       1.00000000
   86400.00000000  1       1.00000000
   86400.00000000  1       1.00000000
   86400.00000000  1       1.00000000
   86400.00000000  1       1.00000000
   86400.00000000  1       1.00000000
   86400.00000000  1       1.00000000
   86400.00000000  1       1.00000000
   86400.00000000  1       1.00000000
   86400.00000000  1       1.00000000
   86400.00000000  1       1.00000000
   86400.00000000  1       1.00000000
   86400.00000000  1       1.00000000
   86400.00000000  1       1.00000000
   86400.00000000  1       1.00000000
   86400.00000000  1       1.00000000
   86400.00000000  1       1.00000000
   86400.00000000  1       1.00000000
   86400.00000000  1       1.00000000
   86400.00000000  1       1.00000000
   86400.00000000  1       1.00000000
   86400.00000000  1       1.00000000
   86400.00000000  1       1.00000000
   86400.00000000  1       1.00000000
   86400.00000000  1       1.00000000
   86400.00000000  1       1.00000000
   86400.00000000  1       1.00000000
   86400.00000000  1       1.00000000
   86400.00000000  1       1.00000000
   86400.00000000  1       1.00000000
   86400.00000000  1       1.00000000
   86400.00000000  1       1.00000000
   86400.00000000  1       1.00000000
   86400.00000000  1       1.00000000
   86400.00000000  1       1.00000000
   86400.00000000  1       1.00000000
   86400.00000000  1       1.00000000
   86400.00000000  1       1.00000000
   86400.00000000  1       1.00000000
   86400.00000000  1       1.00000000
   86400.00000000  1       1.00000000
   86400.00000000  1       1.00000000
   86400.00000000  1       1.00000000
   86400.00000000  1       1.00000000
   86400.00000000  1       1.00000000
   86400.00000000  1       1.00000000
   86400.00000000  1       1.00000000
   86400.00000000  1       1.00000000
   86400.00000000  1       1.00000000
   86400.00000000  1       1.00000000
   86400.00000000  1       1.00000000
   86400.00000000  1       1.00000000
   86400.00000000  1       1.00000000
   86400.00000000  1       1.00000000
   86400.00000000  1       1.00000000
   86400.00000000  1       1.00000000
   86400.00000000  1       1.00000000
   86400.00000000  1       1.00000000
   86400.00000000  1       1.00000000
   86400.00000000  1       1.00000000
   86400.00000000  1       1.00000000
   86400.00000000  1       1.00000000
   86400.00000000  1       1.00000000
   86400.00000000  1       1.00000000
   86400.00000000  1       1.00000000
   86400.00000000  1       1.00000000
   86400.00000000  1       1.00000000
   86400.00000000  1       1.00000000
   86400.00000000  1       1.00000000
   86400.00000000  1       1.00000000
   86400.00000000  1       1.00000000
   86400.00000000  1       1.00000000
   86400.00000000  1       1.00000000
   86400.00000000  1       1.00000000
   86400.00000000  1       1.00000000
   86400.00000000  1       1.00000000
   86400.00000000  1       1.00000000
   86400.00000000  1       1.00000000
   86400.00000000  1       1.00000000
   86400.00000000  1       1.00000000
   86400.00000000  1       1.00000000
   86400.00000000  1       1.00000000
   86400.00000000  1       1.00000000
   86400.00000000  1       1.00000000
   86400.00000000  1       1.00000000
   86400.00000000  1       1.00000000
   86400.00000000  1       1.00000000
   86400.00000000  1       1.00000000
   86400.00000000  1       1.00000000
   86400.00000000  1       1.00000000
   86400.00000000  1       1.00000000
   86400.00000000  1       1.00000000
   86400.00000000  1       1.00000000
   86400.00000000  1       1.00000000
   86400.00000000  1       1.00000000
   86400.00000000  1       1.00000000
   86400.00000000  1       1.00000000
   86400.00000000  1       1.00000000
   86400.00000000  1       1.00000000
   86400.00000000  1       1.00000000
   86400.00000000  1       1.00000000
   86400.00000000  1       1.00000000
   86400.00000000  1       1.00000000
   86400.00000000  1       1.00000000
   86400.00000000  1       1.00000000
   86400.00000000  1       1.00000000
   86400.00000000  1       1.00000000
   86400.00000000  1       1.00000000
   86400.00000000  1       1.00000000
   86400.00000000  1       1.00000000
   86400.00000000  1       1.00000000
   86400.00000000  1       1.00000000
   86400.00000000  1       1.00000000
   86400.00000000  1       1.00000000
   86400.00000000  1       1.00000000
   86400.00000000  1       1.00000000
   86400.00000000  1       1.00000000
   86400.00000000  1       1.00000000
   86400.00000000  1       1.00000000
   86400.00000000  1       1.00000000
   86400.00000000  1       1.00000000
   86400.00000000  1       1.00000000
   86400.00000000  1       1.00000000
   86400.00000000  1       1.00000000
   86400.00000000  1       1.00000000
   86400.00000000  1       1.00000000
   86400.00000000  1       1.00000000
   86400.00000000  1       1.00000000
   86400.00000000  1       1.00000000
   86400.00000000  1       1.00000000
   86400.00000000  1       1.00000000
   86400.00000000  1       1.00000000
   86400.00000000  1       1.00000000
   86400.00000000  1       1.00000000
   86400.00000000  1       1.00000000
   86400.00000000  1       1.00000000
   86400.00000000  1       1.00000000
   86400.00000000  1       1.00000000
   86400.00000000  1       1.00000000
   86400.00000000  1       1.00000000
   86400.00000000  1       1.00000000
   86400.00000000  1       1.00000000
   86400.00000000  1       1.00000000
   86400.00000000  1       1.00000000
   86400.00000000  1       1.00000000
   86400.00000000  1       1.00000000
   86400.00000000  1       1.00000000
   86400.00000000  1       1.00000000
   86400.00000000  1       1.00000000
   86400.00000000  1       1.00000000
   86400.00000000  1       1.00000000
   86400.00000000  1       1.00000000
   86400.00000000  1       1.00000000
   86400.00000000  1       1.00000000
   86400.00000000  1       1.00000000
   86400.00000000  1       1.00000000
   86400.00000000  1       1.00000000
   86400.00000000  1       1.00000000
   86400.00000000  1       1.00000000
   86400.00000000  1       1.00000000
   86400.00000000  1       1.00000000
   86400.00000000  1       1.00000000
   86400.00000000  1       1.00000000
   86400.00000000  1       1.00000000
   86400.00000000  1       1.00000000
   86400.00000000  1       1.00000000
   86400.00000000  1       1.00000000
   86400.00000000  1       1.00000000
   86400.00000000  1       1.00000000
   86400.00000000  1       1.00000000
   86400.00000000  1       1.00000000
   86400.00000000  1       1.00000000
   86400.00000000  1       1.00000000
   86400.00000000  1       1.00000000
   86400.00000000  1       1.00000000
   86400.00000000  1       1.00000000
   86400.00000000  1       1.00000000
   86400.00000000  1       1.00000000
   86400.00000000  1       1.00000000
   86400.00000000  1       1.00000000
   86400.00000000  1       1.00000000
   86400.00000000  1       1.00000000
   86400.00000000  1       1.00000000
   86400.00000000  1       1.00000000
   86400.00000000  1       1.00000000
   86400.00000000  1       1.00000000
   86400.00000000  1       1.00000000
   86400.00000000  1       1.00000000
   86400.00000000  1       1.00000000
   86400.00000000  1       1.00000000
   86400.00000000  1       1.00000000
   86400.00000000  1       1.00000000
   86400.00000000  1       1.00000000
   86400.00000000  1       1.00000000
   86400.00000000  1       1.00000000
   86400.00000000  1       1.00000000
   86400.00000000  1       1.00000000
   86400.00000000  1       1.00000000
   86400.00000000  1       1.00000000
   86400.00000000  1       1.00000000
   86400.00000000  1       1.00000000
   86400.00000000  1       1.00000000
   86400.00000000  1       1.00000000
   86400.00000000  1       1.00000000
   86400.00000000  1       1.00000000
   86400.00000000  1       1.00000000
   86400.00000000  1       1.00000000
   86400.00000000  1       1.00000000
   86400.00000000  1       1.00000000
   86400.00000000  1       1.00000000
   86400.00000000  1       1.00000000
   86400.00000000  1       1.00000000
   86400.00000000  1       1.00000000
   86400.00000000  1       1.00000000
   86400.00000000  1       1.00000000
   86400.00000000  1       1.00000000
   86400.00000000  1       1.00000000
   86400.00000000  1       1.00000000
   86400.00000000  1       1.00000000
   86400.00000000  1       1.00000000
   86400.00000000  1       1.00000000
   86400.00000000  1       1.00000000
   86400.00000000  1       1.00000000
   86400.00000000  1       1.00000000
   86400.00000000  1       1.00000000
   86400.00000000  1       1.00000000
   86400.00000000  1       1.00000000
   86400.00000000  1       1.00000000
   86400.00000000  1       1.00000000
   86400.00000000  1       1.00000000
   86400.00000000  1       1.00000000
   86400.00000000  1       1.00000000
   86400.00000000  1       1.00000000
   86400.00000000  1       1.00000000
   86400.00000000  1       1.00000000
   86400.00000000  1       1.00000000
   86400.00000000  1       1.00000000
   86400.00000000  1       1.00000000
   86400.00000000  1       1.00000000
   86400.00000000  1       1.00000000
   86400.00000000  1       1.00000000
   86400.00000000  1       1.00000000
   86400.00000000  1       1.00000000
   86400.00000000  1       1.00000000
   86400.00000000  1       1.00000000
   86400.00000000  1       1.00000000
   86400.00000000  1       1.00000000
   86400.00000000  1       1.00000000
   86400.00000000  1       1.00000000
   86400.00000000  1       1.00000000
   86400.00000000  1       1.00000000
   86400.00000000  1       1.00000000
   86400.00000000  1       1.00000000
   86400.00000000  1       1.00000000
   86400.00000000  1       1.00000000
   86400.00000000  1       1.00000000
   86400.00000000  1       1.00000000
   86400.00000000  1       1.00000000
   86400.00000000  1       1.00000000
   86400.00000000  1       1.00000000
   86400.00000000  1       1.00000000
   86400.00000000  1       1.00000000
   86400.00000000  1       1.00000000
   86400.00000000  1       1.00000000
   86400.00000000  1       1.00000000
   86400.00000000  1       1.00000000
   86400.00000000  1       1.00000000
   86400.00000000  1       1.00000000
   86400.00000000  1       1.00000000
   86400.00000000  1       1.00000000
   86400.00000000  1       1.00000000
   86400.00000000  1       1.00000000
   86400.00000000  1       1.00000000
   86400.00000000  1       1.00000000
   86400.00000000  1       1.00000000
   86400.00000000  1       1.00000000
   86400.00000000  1       1.00000000
   86400.00000000  1       1.00000000
   86400.00000000  1       1.00000000
   86400.00000000  1       1.00000000
   86400.00000000  1       1.00000000
   86400.00000000  1       1.00000000
   86400.00000000  1       1.00000000
   86400.00000000  1       1.00000000
   86400.00000000  1       1.00000000
   86400.00000000  1       1.00000000
   86400.00000000  1       1.00000000
   86400.00000000  1       1.00000000
   86400.00000000  1       1.00000000
   86400.00000000  1       1.00000000
   86400.00000000  1       1.00000000
   86400.00000000  1       1.00000000
   86400.00000000  1       1.00000000