# File generated by Flopy version 3.3.4 on 11/27/2021 at 21:53:52.
BEGIN options
  COMPLEXITY  complex
END options

