# File generated by Flopy version 3.3.4 on 08/28/2021 at 19:54:39.
BEGIN options
  COMPLEXITY  complex
END options

