# File generated by Flopy version 3.3.2 on 05/30/2021 at 16:52:00.
BEGIN options
  BUDGET  FILEOUT  modelo_Norte.cbb
  HEAD  FILEOUT  modelo_Norte.hds
END options

BEGIN period  1
  SAVE  HEAD  ALL
  SAVE  BUDGET  ALL
  PRINT  HEAD  LAST
END period  1

