# File generated by Flopy version 3.3.6 on 08/05/2022 at 21:26:55.
BEGIN options
  PRINT_FLOWS
  SAVE_FLOWS
END options

BEGIN dimensions
  MAXBOUND  597
END dimensions

BEGIN period  1
  1 2 19     627.55200544
  1 2 20     625.30764106
  1 3 18     637.52865192
  1 3 19     625.72401088
  1 3 20     622.38000000
  1 3 21     622.73883073
  1 4 18     637.96974847
  1 4 19     626.27600272
  1 4 20     619.53530807
  1 4 21     616.81271244
  1 4 34     621.09260886
  1 4 35     624.82103191
  1 4 36     630.35653000
  1 4 37     640.11158149
  1 5 18     635.69858785
  1 5 19     613.77562948
  1 5 21     611.64214765
  1 5 22     609.00165577
  1 5 23     609.77785462
  1 5 28     611.74615210
  1 5 29     613.00000000
  1 5 30     613.14436402
  1 5 31     613.04371637
  1 5 32     613.00000000
  1 5 33     613.04968953
  1 5 34     615.00443583
  1 5 35     616.83153885
  1 5 36     617.00000000
  1 5 37     617.00643187
  1 5 38     624.70327827
  1 6 18     629.93822212
  1 6 19     617.52468355
  1 6 22     613.46788292
  1 6 23     609.04031768
  1 6 24     609.02830807
  1 6 25     610.98476929
  1 6 26     611.00642524
  1 6 27     611.00025696
  1 6 28     611.65451457
  1 6 29     617.66826713
  1 6 38     617.00737950
  1 6 39     637.07201768
  1 7 18     620.47377841
  1 7 19     609.25557383
  1 7 25     611.54215938
  1 7 26     612.84153186
  1 7 38     623.19405855
  1 7 39     623.03570395
  1 8 17     626.19070020
  1 8 18     617.91493990
  1 8 39     619.42544058
  1 9 17     624.08077626
  1 9 18     618.40132670
  1 9 39     621.50143065
  1 10 18     619.97580803
  1 10 39     619.48840084
  1 11 18     621.00000000
  1 11 19     609.00000000
  1 11 39     621.89871978
  1 11 40     633.45642617
  1 12 18     620.98349573
  1 12 19     609.00000000
  1 12 39     623.31252411
  1 12 40     626.37027051
  1 13 18     620.00232061
  1 13 19     609.00000000
  1 13 20     609.28220688
  1 13 39     625.71550168
  1 13 40     624.40373212
  1 14 19     609.00000000
  1 14 20     609.61307754
  1 14 39     627.92936185
  1 14 40     625.35600096
  1 15 19     609.00000000
  1 15 20     609.36032385
  1 15 39     631.56636464
  1 15 40     624.78677258
  1 16 19     609.02194360
  1 16 20     610.81506127
  1 16 40     625.46634248
  1 16 41     625.00000000
  1 16 42     626.64732563
  1 17 20     609.68811442
  1 17 42     625.93031958
  1 17 43     625.52439986
  1 18 20     609.00000000
  1 18 43     626.29347085
  1 18 44     631.22529809
  1 19 20     609.00000000
  1 19 44     626.76521097
  1 19 45     643.27812078
  1 20 19     609.11431809
  1 20 20     610.00256276
  1 20 44     628.06309617
  1 20 45     633.98997564
  1 21 18     610.20989933
  1 21 19     609.44582293
  1 21 20     611.82733710
  1 21 44     627.03660685
  1 21 45     633.78046770
  1 22 18     610.32334004
  1 22 19     610.19640438
  1 22 20     612.50783139
  1 22 43     630.42938536
  1 22 44     631.63461625
  1 23 18     610.37564638
  1 23 19     610.84622236
  1 23 20     611.07519165
  1 23 43     633.42558253
  1 23 44     629.93555222
  1 23 52     640.44772812
  1 23 53     641.06285647
  1 23 54     641.10411754
  1 23 55     639.75416719
  1 23 56     642.72724212
  1 23 57     647.25266897
  1 24 18     610.51240377
  1 24 19     611.00000000
  1 24 20     611.00000000
  1 24 44     631.89688841
  1 24 45     633.00000000
  1 24 46     633.00000000
  1 24 47     633.05939786
  1 24 48     633.11046824
  1 24 49     634.10709225
  1 24 50     635.50437316
  1 24 51     635.13456877
  1 24 52     638.98942510
  1 24 56     639.26880075
  1 24 57     639.00000000
  1 24 58     644.78544030
  1 25 18     610.99976178
  1 25 19     611.00000000
  1 25 20     611.10670987
  1 25 49     633.64454299
  1 25 50     634.45866074
  1 25 57     641.13592956
  1 25 58     639.06908586
  1 25 59     644.06120850
  1 26 18     611.00973788
  1 26 19     611.50004650
  1 26 20     612.62152662
  1 26 58     647.45180307
  1 26 59     640.79517378
  1 26 60     643.01628997
  1 26 61     644.06228040
  1 27 18     611.91305505
  1 27 20     613.00000000
  1 27 60     644.55512637
  1 27 61     641.00099316
  1 28 18     612.30605604
  1 28 19     613.00000000
  1 28 20     613.00000000
  1 28 61     642.34247079
  1 29 18     612.72836370
  1 29 19     613.00000000
  1 29 20     613.25515506
  1 29 61     643.00000000
  1 30 18     612.99951439
  1 30 19     613.24665549
  1 30 20     614.16798477
  1 30 61     643.74907564
  1 30 62     650.29905195
  1 31 18     613.00000000
  1 31 19     613.38600957
  1 31 20     614.58843493
  1 31 60     646.70972570
  1 31 61     645.00000000
  1 32 18     613.62883022
  1 32 19     614.09715863
  1 32 20     622.67858708
  1 32 60     647.92936186
  1 32 61     645.65410421
  1 33 18     613.98506626
  1 33 19     614.72359564
  1 33 61     647.14330101
  1 33 62     647.00000000
  1 33 63     648.32820344
  1 33 64     648.43909194
  1 33 65     648.42130504
  1 33 66     648.39953788
  1 33 67     648.35600355
  1 33 68     648.32807814
  1 33 69     648.28580286
  1 33 70     648.24352757
  1 33 71     648.20125228
  1 33 72     648.17930312
  1 33 73     648.22476887
  1 33 74     648.27786285
  1 33 75     648.33095683
  1 33 76     648.39322224
  1 33 77     648.49772772
  1 33 78     648.61353657
  1 33 79     648.72934542
  1 33 80     648.84311830
  1 34 17     614.02163588
  1 34 18     614.33446235
  1 34 19     619.32589203
  1 34 65     647.98866184
  1 34 66     647.95421994
  1 34 67     647.88533614
  1 34 68     647.86445164
  1 34 69     647.87515844
  1 34 70     647.88586523
  1 34 71     647.89657203
  1 34 72     647.92793341
  1 34 73     648.02779911
  1 34 74     648.13541631
  1 34 75     648.24303351
  1 34 76     648.35757240
  1 34 77     648.50398998
  1 34 78     648.65893824
  1 34 79     648.81388651
  1 34 80     648.95646969
  1 34 81     649.00000000
  1 34 82     649.00000000
  1 34 83     649.00000000
  1 34 84     649.00000000
  1 34 85     649.00000000
  1 34 86     649.00000000
  1 34 87     649.00000000
  1 34 88     649.00000000
  1 34 89     649.00793805
  1 34 90     649.02429384
  1 34 91     649.04088131
  1 34 92     649.05746879
  1 34 93     649.11162122
  1 34 94     649.23855724
  1 34 95     649.36914791
  1 34 96     649.49973858
  1 34 97     649.63739485
  1 34 98     649.80506496
  1 34 99     649.97471126
  1 34 100     650.14435756
  1 34 101     650.31096548
  1 34 102     650.39433636
  1 34 103     650.47125391
  1 34 104     650.54817147
  1 34 105     650.62508902
  1 34 106     650.63709907
  1 34 107     650.63247801
  1 34 108     650.62785695
  1 34 109     650.62323589
  1 34 110     650.59972709
  1 34 111     650.56507281
  1 34 112     650.53041854
  1 34 113     650.49576426
  1 34 114     650.44694437
  1 34 115     650.38161242
  1 34 116     650.31628047
  1 34 117     650.25094851
  1 34 118     650.18384949
  1 34 119     650.11251968
  1 34 120     650.04118987
  1 34 121     649.96986006
  1 34 122     649.94396131
  1 34 123     650.07557822
  1 34 124     650.22454328
  1 34 125     650.37350833
  1 34 126     650.52482097
  1 34 127     650.68729773
  1 34 128     650.85277702
  1 34 129     651.01825632
  1 34 130     651.17444547
  1 34 131     651.25538342
  1 34 132     651.30256801
  1 34 133     651.34975261
  1 34 134     651.39567066
  1 34 135     651.39251419
  1 34 136     651.35726671
  1 34 137     651.32201924
  1 34 138     651.28677177
  1 34 139     651.26516126
  1 34 140     651.25821257
  1 34 141     651.25170940
  1 34 142     651.24520623
  1 34 143     651.27009004
  1 34 144     651.35574119
  1 34 145     651.44487415
  1 34 146     651.53400712
  1 34 147     651.66263661
  1 34 148     651.95578511
  1 34 149     652.26144139
  1 34 150     652.56709768
  1 34 151     652.85831690
  1 34 152     652.80565589
  1 34 153     652.72201546
  1 34 154     652.63837504
  1 34 155     652.55473461
  1 34 156     652.53312605
  1 34 157     652.52797039
  1 34 158     652.52281472
  1 34 159     652.51765906
  1 34 160     652.56732342
  1 34 161     652.65012897
  1 34 162     652.73293453
  1 34 163     652.81574009
  1 34 164     652.95527774
  1 34 165     653.16247106
  1 34 166     653.36966438
  1 34 167     653.57685770
  1 34 168     653.72021020
  1 34 169     653.70646420
  1 34 170     653.69271819
  1 34 171     653.67897219
  1 34 172     653.63609457
  1 34 173     653.48736790
  1 34 174     653.32732988
  1 34 175     653.16729187
  1 34 176     653.06049192
  1 34 177     653.21584006
  1 34 178     653.44192773
  1 34 179     653.66801539
  1 34 180     653.91487110
  1 34 181     654.33239746
  1 34 182     654.82794189
  1 34 183     655.32348633
  1 34 184     655.81229523
  1 34 185     656.06468334
  1 34 186     656.15743407
  1 34 187     656.25018479
  1 34 188     656.34293551
  1 34 189     656.43678101
  1 34 190     656.53182135
  1 34 191     656.62690091
  1 34 192     656.72198047
  1 34 193     656.81165075
  1 34 194     656.89084379
  1 34 195     656.96936516
  1 34 196     657.04788654
  1 34 197     657.13233466
  1 34 198     657.24102706
  1 34 199     657.35180797
  1 34 200     657.46258887
  1 34 201     657.57315670
  1 34 202     657.67922936
  1 34 203     657.78483995
  1 34 204     657.89045055
  1 34 205     657.99606114
  1 35 16     614.35118812
  1 35 17     614.48783753
  1 35 18     614.75025369
  1 35 19     629.69068736
  1 35 100     653.57323517
  1 35 101     653.58974564
  1 35 102     653.57457450
  1 35 103     653.55694711
  1 35 104     653.53931971
  1 35 105     653.52169231
  1 35 106     653.64071743
  1 35 107     653.79475671
  1 35 108     653.94879600
  1 35 109     654.10283528
  1 35 110     654.19192448
  1 35 111     654.24268728
  1 35 112     654.29345009
  1 35 113     654.34421289
  1 35 114     654.38560116
  1 35 115     654.41606206
  1 35 116     654.44652297
  1 35 117     654.47698387
  1 35 118     654.54853849
  1 35 119     654.71848095
  1 35 120     654.88842342
  1 35 121     655.05836588
  1 35 122     655.23719912
  1 35 123     655.44685791
  1 35 124     655.65991169
  1 35 125     655.87296548
  1 35 126     656.06294378
  1 35 127     656.14318478
  1 35 128     656.19391243
  1 35 129     656.24464008
  1 35 130     656.29698020
  1 35 131     656.36238151
  1 35 132     656.43364130
  1 35 133     656.50490110
  1 35 134     656.57477725
  1 35 135     656.59104167
  1 35 136     656.57224810
  1 35 137     656.55345452
  1 35 138     656.53466095
  1 35 139     656.48299970
  1 35 140     656.39600066
  1 35 141     656.30792783
  1 35 142     656.21985500
  1 35 143     656.04811873
  1 35 144     655.71440437
  1 35 145     655.37140906
  1 35 146     655.02841374
  1 35 147     654.70713107
  1 35 148     654.47629034
  1 35 149     654.25232558
  1 35 150     654.02836082
  1 35 151     653.81752334
  1 35 152     653.91936780
  1 35 153     654.04938110
  1 35 154     654.17939439
  1 35 155     654.30940769
  1 35 172     653.00132651
  1 35 173     653.00000000
  1 35 174     653.00000000
  1 35 175     653.00000000
  1 35 176     653.00000000
  1 35 177     653.00000000
  1 35 178     653.00000000
  1 35 179     653.00000000
  1 35 180     653.00000000
  1 35 181     653.00000000
  1 35 182     653.00000000
  1 35 183     653.00000000
  1 35 184     653.00144748
  1 35 185     653.05370233
  1 35 186     653.14026361
  1 35 187     653.22682490
  1 35 188     653.31338618
  1 35 189     653.36286145
  1 35 190     653.37186098
  1 35 191     653.37953208
  1 35 192     653.38720319
  1 35 193     653.38446753
  1 35 194     653.36157497
  1 35 195     653.33739021
  1 35 196     653.31320545
  1 35 197     653.28821072
  1 35 198     653.25990270
  1 35 199     653.23130926
  1 35 200     653.20271582
  1 35 201     653.17511335
  1 35 202     653.16841711
  1 35 203     653.16386987
  1 35 204     653.15932263
  1 35 205     653.15477540
  1 35 206     653.26839603
  1 35 207     653.41443817
  1 35 208     653.56048031
  1 35 209     653.70652246
  1 35 210     653.92720838
  1 35 211     654.19411866
  1 35 212     654.46102894
  1 35 213     654.72793923
  1 35 214     654.88817806
  1 35 215     654.91826430
  1 35 216     654.94835054
  1 35 217     654.97843677
  1 35 218     655.00361896
  1 35 219     655.01639388
  1 35 220     655.02916880
  1 35 221     655.04194372
  1 35 222     655.07891330
  1 35 223     655.20825670
  1 35 224     655.34714682
  1 35 225     655.48603694
  1 35 226     655.65219810
  1 35 227     655.95781276
  1 35 228     656.30112210
  1 35 229     656.64443144
  1 35 230     657.00236485
  1 35 231     657.48265389
  1 35 232     658.01986225
  1 36 15     614.64561006
  1 36 16     614.79175453
  1 36 17     614.92782348
  1 36 18     620.27850063
  1 36 211     658.58401312
  1 36 212     658.44422552
  1 36 213     658.30443792
  1 36 214     658.04133249
  1 36 215     657.62776380
  1 36 216     657.21419511
  1 36 217     656.80062642
  1 36 218     656.46418271
  1 36 219     656.32286518
  1 36 220     656.18154765
  1 36 221     656.04023011
  1 36 222     655.89206490
  1 36 223     655.71775564
  1 36 224     655.54074442
  1 36 225     655.36373321
  1 36 226     655.20485187
  1 36 227     655.13867969
  1 36 228     655.09756706
  1 36 229     655.05645444
  1 36 230     655.01832721
  1 36 231     655.00517798
  1 36 232     655.00364842
  1 36 233     655.00211886
  1 36 234     655.00082133
  1 36 235     655.00703442
  1 36 236     655.01847751
  1 36 237     655.02992060
  1 36 238     655.04136368
  1 36 239     655.08572001
  1 36 240     655.16658497
  1 36 241     655.24872139
  1 36 242     655.33085781
  1 36 243     655.45426923
  1 36 244     655.65775761
  1 36 245     655.86690136
  1 36 246     656.07604512
  1 36 247     656.31895976
  1 36 248     656.69774239
  1 36 249     657.08959261
  1 36 250     657.48144284
  1 36 251     657.86205456
  1 36 252     658.02959678
  1 36 253     658.17250115
  1 36 259     659.24896255
  1 36 260     657.22268263
  1 36 261     659.00000000
  1 36 262     659.00000000
  1 36 263     663.93559924
  1 36 264     689.82369126
  1 37 13     614.81835245
  1 37 14     614.94364174
  1 37 15     615.00000000
  1 37 16     615.00000000
  1 37 17     616.62618394
  1 37 240     663.13185333
  1 37 241     661.37553916
  1 37 242     659.61922499
  1 37 243     658.24931894
  1 37 244     657.62907688
  1 37 245     657.06177935
  1 37 246     656.49448181
  1 37 247     656.00802994
  1 37 248     655.84683869
  1 37 249     655.71693056
  1 37 250     655.58702242
  1 37 251     655.45810255
  1 37 252     655.34791896
  1 37 253     655.23990191
  1 37 254     655.13188485
  1 37 255     655.02386779
  1 37 256     655.00000000
  1 37 257     655.00000000
  1 37 258     655.06641839
  1 37 259     655.95378857
  1 37 260     656.99193928
  1 37 264     661.06750206
  1 37 265     671.57722442
  1 38 12     615.95347836
  1 38 13     615.00000000
  1 38 14     615.00000000
  1 38 15     615.00000000
  1 38 16     615.96296282
  1 38 17     633.66052361
  1 38 264     664.59153753
  1 38 265     662.05449466
  1 39 10     631.00000000
  1 39 11     615.82058295
  1 39 12     615.07414165
  1 39 13     615.04837209
  1 39 14     615.66883624
  1 39 265     661.00000000
  1 39 266     668.37600340
  1 40 8     630.00000000
  1 40 9     627.12771478
  1 40 10     616.35360560
  1 40 11     616.93377254
  1 40 265     667.62230204
  1 40 266     665.00000000
  1 41 7     629.98298693
  1 41 8     616.33751671
  1 41 9     616.86153657
  1 41 266     665.07739604
  1 41 267     667.50283141
  1 42 5     631.18000000
  1 42 6     632.36000000
  1 42 7     616.77192540
  1 42 8     618.19304562
  1 42 266     671.21448979
  1 42 267     665.01001521
  1 42 268     667.20104319
  1 43 4     637.00000000
  1 43 5     636.30000000
  1 43 6     617.25898080
  1 43 7     619.76085840
  1 43 267     670.78097642
  1 43 268     665.01199833
  1 43 269     669.98622488
  1 44 3     636.31109024
  1 44 4     636.00000000
  1 44 5     617.21060378
  1 44 269     665.00000000
  1 44 270     669.46170323
  1 45 3     634.54100969
  1 45 4     619.42090520
  1 45 270     665.16769917
  1 46 2     619.54361970
  1 46 3     617.23436440
  1 47 2     617.88419360
  1 47 3     623.89536234
  1 48 1     629.74847774
  1 48 2     622.48705330
  1 49 1     618.42866025
  1 50 1     619.00000000
END period  1

