# File generated by Flopy version 3.3.4 on 11/27/2021 at 23:24:34.
BEGIN griddata
  strt  LAYERED
    INTERNAL  FACTOR  1.0
         700.00000000     625.00000000     613.00000000     607.00000000     610.00000000     615.00000000     614.00000000     615.00000000     626.00000000     621.00000000     662.00000000     656.00000000     638.00000000     641.00000000     638.00000000     641.00000000     653.00000000     652.00000000     680.00000000     712.00000000     730.00000000     765.00000000     774.00000000     783.00000000     786.00000000     784.00000000     770.00000000     760.00000000     766.00000000     765.00000000     769.00000000     770.00000000     768.00000000     766.00000000     766.00000000     765.00000000     763.00000000     761.00000000     761.00000000     761.00000000     760.00000000     759.00000000     758.00000000     758.00000000     758.00000000     760.00000000     764.00000000     767.00000000     771.00000000     771.00000000     774.00000000     779.00000000     783.00000000     786.00000000     786.00000000     789.00000000     791.00000000     792.00000000     792.00000000     792.00000000     792.00000000     793.00000000     794.00000000     795.00000000     795.00000000     798.00000000     802.00000000     807.00000000     810.00000000     810.00000000     812.00000000     814.00000000     816.00000000     817.00000000     817.00000000     820.00000000     822.00000000     824.00000000     826.00000000     826.00000000     827.00000000     826.00000000     826.00000000     825.00000000     825.00000000     825.00000000     826.00000000     828.00000000     830.00000000     830.00000000     832.00000000     834.00000000     835.00000000     837.00000000     837.00000000     839.00000000     842.00000000     845.00000000     848.00000000     857.00000000     861.00000000     861.00000000     832.00000000     807.00000000     824.00000000     851.00000000     895.00000000
         700.00000000     625.00000000     613.00000000     607.00000000     610.00000000     615.00000000     614.00000000     615.00000000     626.00000000     621.00000000     662.00000000     656.00000000     638.00000000     641.00000000     638.00000000     641.00000000     653.00000000     652.00000000     680.00000000     712.00000000     730.00000000     765.00000000     774.00000000     783.00000000     786.00000000     784.00000000     770.00000000     760.00000000     766.00000000     765.00000000     769.00000000     770.00000000     768.00000000     766.00000000     766.00000000     765.00000000     763.00000000     761.00000000     761.00000000     761.00000000     760.00000000     759.00000000     758.00000000     758.00000000     758.00000000     760.00000000     764.00000000     767.00000000     771.00000000     771.00000000     774.00000000     779.00000000     783.00000000     786.00000000     786.00000000     789.00000000     791.00000000     792.00000000     792.00000000     792.00000000     792.00000000     793.00000000     794.00000000     795.00000000     795.00000000     798.00000000     802.00000000     807.00000000     810.00000000     810.00000000     812.00000000     814.00000000     816.00000000     817.00000000     817.00000000     820.00000000     822.00000000     824.00000000     826.00000000     826.00000000     827.00000000     826.00000000     826.00000000     825.00000000     825.00000000     825.00000000     826.00000000     828.00000000     830.00000000     830.00000000     832.00000000     834.00000000     835.00000000     837.00000000     837.00000000     839.00000000     842.00000000     845.00000000     848.00000000     857.00000000     861.00000000     861.00000000     832.00000000     807.00000000     824.00000000     851.00000000     895.00000000
         700.00000000     625.00000000     613.00000000     607.00000000     610.00000000     615.00000000     614.00000000     615.00000000     626.00000000     621.00000000     662.00000000     656.00000000     638.00000000     641.00000000     638.00000000     641.00000000     653.00000000     652.00000000     680.00000000     712.00000000     730.00000000     765.00000000     774.00000000     783.00000000     786.00000000     784.00000000     770.00000000     760.00000000     766.00000000     765.00000000     769.00000000     770.00000000     768.00000000     766.00000000     766.00000000     765.00000000     763.00000000     761.00000000     761.00000000     761.00000000     760.00000000     759.00000000     758.00000000     758.00000000     758.00000000     760.00000000     764.00000000     767.00000000     771.00000000     771.00000000     774.00000000     779.00000000     783.00000000     786.00000000     786.00000000     789.00000000     791.00000000     792.00000000     792.00000000     792.00000000     792.00000000     793.00000000     794.00000000     795.00000000     795.00000000     798.00000000     802.00000000     807.00000000     810.00000000     810.00000000     812.00000000     814.00000000     816.00000000     817.00000000     817.00000000     820.00000000     822.00000000     824.00000000     826.00000000     826.00000000     827.00000000     826.00000000     826.00000000     825.00000000     825.00000000     825.00000000     826.00000000     828.00000000     830.00000000     830.00000000     832.00000000     834.00000000     835.00000000     837.00000000     837.00000000     839.00000000     842.00000000     845.00000000     848.00000000     857.00000000     861.00000000     861.00000000     832.00000000     807.00000000     824.00000000     851.00000000     895.00000000
         700.00000000     625.00000000     613.00000000     607.00000000     610.00000000     615.00000000     614.00000000     615.00000000     626.00000000     621.00000000     662.00000000     656.00000000     638.00000000     641.00000000     638.00000000     641.00000000     653.00000000     652.00000000     680.00000000     712.00000000     730.00000000     765.00000000     774.00000000     783.00000000     786.00000000     784.00000000     770.00000000     760.00000000     766.00000000     765.00000000     769.00000000     770.00000000     768.00000000     766.00000000     766.00000000     765.00000000     763.00000000     761.00000000     761.00000000     761.00000000     760.00000000     759.00000000     758.00000000     758.00000000     758.00000000     760.00000000     764.00000000     767.00000000     771.00000000     771.00000000     774.00000000     779.00000000     783.00000000     786.00000000     786.00000000     789.00000000     791.00000000     792.00000000     792.00000000     792.00000000     792.00000000     793.00000000     794.00000000     795.00000000     795.00000000     798.00000000     802.00000000     807.00000000     810.00000000     810.00000000     812.00000000     814.00000000     816.00000000     817.00000000     817.00000000     820.00000000     822.00000000     824.00000000     826.00000000     826.00000000     827.00000000     826.00000000     826.00000000     825.00000000     825.00000000     825.00000000     826.00000000     828.00000000     830.00000000     830.00000000     832.00000000     834.00000000     835.00000000     837.00000000     837.00000000     839.00000000     842.00000000     845.00000000     848.00000000     857.00000000     861.00000000     861.00000000     832.00000000     807.00000000     824.00000000     851.00000000     895.00000000
         700.00000000     625.00000000     613.00000000     607.00000000     610.00000000     615.00000000     614.00000000     615.00000000     626.00000000     621.00000000     662.00000000     656.00000000     638.00000000     641.00000000     638.00000000     641.00000000     653.00000000     652.00000000     680.00000000     712.00000000     730.00000000     765.00000000     774.00000000     783.00000000     786.00000000     784.00000000     770.00000000     760.00000000     766.00000000     765.00000000     769.00000000     770.00000000     768.00000000     766.00000000     766.00000000     765.00000000     763.00000000     761.00000000     761.00000000     761.00000000     760.00000000     759.00000000     758.00000000     758.00000000     758.00000000     760.00000000     764.00000000     767.00000000     771.00000000     771.00000000     774.00000000     779.00000000     783.00000000     786.00000000     786.00000000     789.00000000     791.00000000     792.00000000     792.00000000     792.00000000     792.00000000     793.00000000     794.00000000     795.00000000     795.00000000     798.00000000     802.00000000     807.00000000     810.00000000     810.00000000     812.00000000     814.00000000     816.00000000     817.00000000     817.00000000     820.00000000     822.00000000     824.00000000     826.00000000     826.00000000     827.00000000     826.00000000     826.00000000     825.00000000     825.00000000     825.00000000     826.00000000     828.00000000     830.00000000     830.00000000     832.00000000     834.00000000     835.00000000     837.00000000     837.00000000     839.00000000     842.00000000     845.00000000     848.00000000     857.00000000     861.00000000     861.00000000     832.00000000     807.00000000     824.00000000     851.00000000     895.00000000
         700.00000000     625.00000000     613.00000000     607.00000000     610.00000000     615.00000000     614.00000000     615.00000000     626.00000000     621.00000000     662.00000000     656.00000000     638.00000000     641.00000000     638.00000000     641.00000000     653.00000000     652.00000000     680.00000000     712.00000000     730.00000000     765.00000000     774.00000000     783.00000000     786.00000000     784.00000000     770.00000000     760.00000000     766.00000000     765.00000000     769.00000000     770.00000000     768.00000000     766.00000000     766.00000000     765.00000000     763.00000000     761.00000000     761.00000000     761.00000000     760.00000000     759.00000000     758.00000000     758.00000000     758.00000000     760.00000000     764.00000000     767.00000000     771.00000000     771.00000000     774.00000000     779.00000000     783.00000000     786.00000000     786.00000000     789.00000000     791.00000000     792.00000000     792.00000000     792.00000000     792.00000000     793.00000000     794.00000000     795.00000000     795.00000000     798.00000000     802.00000000     807.00000000     810.00000000     810.00000000     812.00000000     814.00000000     816.00000000     817.00000000     817.00000000     820.00000000     822.00000000     824.00000000     826.00000000     826.00000000     827.00000000     826.00000000     826.00000000     825.00000000     825.00000000     825.00000000     826.00000000     828.00000000     830.00000000     830.00000000     832.00000000     834.00000000     835.00000000     837.00000000     837.00000000     839.00000000     842.00000000     845.00000000     848.00000000     857.00000000     861.00000000     861.00000000     832.00000000     807.00000000     824.00000000     851.00000000     895.00000000
         700.00000000     625.00000000     613.00000000     607.00000000     610.00000000     615.00000000     614.00000000     615.00000000     626.00000000     621.00000000     662.00000000     656.00000000     638.00000000     641.00000000     638.00000000     641.00000000     653.00000000     652.00000000     680.00000000     712.00000000     730.00000000     765.00000000     774.00000000     783.00000000     786.00000000     784.00000000     770.00000000     760.00000000     766.00000000     765.00000000     769.00000000     770.00000000     768.00000000     766.00000000     766.00000000     765.00000000     763.00000000     761.00000000     761.00000000     761.00000000     760.00000000     759.00000000     758.00000000     758.00000000     758.00000000     760.00000000     764.00000000     767.00000000     771.00000000     771.00000000     774.00000000     779.00000000     783.00000000     786.00000000     786.00000000     789.00000000     791.00000000     792.00000000     792.00000000     792.00000000     792.00000000     793.00000000     794.00000000     795.00000000     795.00000000     798.00000000     802.00000000     807.00000000     810.00000000     810.00000000     812.00000000     814.00000000     816.00000000     817.00000000     817.00000000     820.00000000     822.00000000     824.00000000     826.00000000     826.00000000     827.00000000     826.00000000     826.00000000     825.00000000     825.00000000     825.00000000     826.00000000     828.00000000     830.00000000     830.00000000     832.00000000     834.00000000     835.00000000     837.00000000     837.00000000     839.00000000     842.00000000     845.00000000     848.00000000     857.00000000     861.00000000     861.00000000     832.00000000     807.00000000     824.00000000     851.00000000     895.00000000
         700.00000000     625.00000000     613.00000000     607.00000000     610.00000000     615.00000000     614.00000000     615.00000000     626.00000000     621.00000000     662.00000000     656.00000000     638.00000000     641.00000000     638.00000000     641.00000000     653.00000000     652.00000000     680.00000000     712.00000000     730.00000000     765.00000000     774.00000000     783.00000000     786.00000000     784.00000000     770.00000000     760.00000000     766.00000000     765.00000000     769.00000000     770.00000000     768.00000000     766.00000000     766.00000000     765.00000000     763.00000000     761.00000000     761.00000000     761.00000000     760.00000000     759.00000000     758.00000000     758.00000000     758.00000000     760.00000000     764.00000000     767.00000000     771.00000000     771.00000000     774.00000000     779.00000000     783.00000000     786.00000000     786.00000000     789.00000000     791.00000000     792.00000000     792.00000000     792.00000000     792.00000000     793.00000000     794.00000000     795.00000000     795.00000000     798.00000000     802.00000000     807.00000000     810.00000000     810.00000000     812.00000000     814.00000000     816.00000000     817.00000000     817.00000000     820.00000000     822.00000000     824.00000000     826.00000000     826.00000000     827.00000000     826.00000000     826.00000000     825.00000000     825.00000000     825.00000000     826.00000000     828.00000000     830.00000000     830.00000000     832.00000000     834.00000000     835.00000000     837.00000000     837.00000000     839.00000000     842.00000000     845.00000000     848.00000000     857.00000000     861.00000000     861.00000000     832.00000000     807.00000000     824.00000000     851.00000000     895.00000000
         700.00000000     625.00000000     613.00000000     607.00000000     610.00000000     615.00000000     614.00000000     615.00000000     626.00000000     621.00000000     662.00000000     656.00000000     638.00000000     641.00000000     638.00000000     641.00000000     653.00000000     652.00000000     680.00000000     712.00000000     730.00000000     765.00000000     774.00000000     783.00000000     786.00000000     784.00000000     770.00000000     760.00000000     766.00000000     765.00000000     769.00000000     770.00000000     768.00000000     766.00000000     766.00000000     765.00000000     763.00000000     761.00000000     761.00000000     761.00000000     760.00000000     759.00000000     758.00000000     758.00000000     758.00000000     760.00000000     764.00000000     767.00000000     771.00000000     771.00000000     774.00000000     779.00000000     783.00000000     786.00000000     786.00000000     789.00000000     791.00000000     792.00000000     792.00000000     792.00000000     792.00000000     793.00000000     794.00000000     795.00000000     795.00000000     798.00000000     802.00000000     807.00000000     810.00000000     810.00000000     812.00000000     814.00000000     816.00000000     817.00000000     817.00000000     820.00000000     822.00000000     824.00000000     826.00000000     826.00000000     827.00000000     826.00000000     826.00000000     825.00000000     825.00000000     825.00000000     826.00000000     828.00000000     830.00000000     830.00000000     832.00000000     834.00000000     835.00000000     837.00000000     837.00000000     839.00000000     842.00000000     845.00000000     848.00000000     857.00000000     861.00000000     861.00000000     832.00000000     807.00000000     824.00000000     851.00000000     895.00000000
         700.00000000     625.00000000     613.00000000     607.00000000     610.00000000     615.00000000     614.00000000     615.00000000     626.00000000     621.00000000     662.00000000     656.00000000     638.00000000     641.00000000     638.00000000     641.00000000     653.00000000     652.00000000     680.00000000     712.00000000     730.00000000     765.00000000     774.00000000     783.00000000     786.00000000     784.00000000     770.00000000     760.00000000     766.00000000     765.00000000     769.00000000     770.00000000     768.00000000     766.00000000     766.00000000     765.00000000     763.00000000     761.00000000     761.00000000     761.00000000     760.00000000     759.00000000     758.00000000     758.00000000     758.00000000     760.00000000     764.00000000     767.00000000     771.00000000     771.00000000     774.00000000     779.00000000     783.00000000     786.00000000     786.00000000     789.00000000     791.00000000     792.00000000     792.00000000     792.00000000     792.00000000     793.00000000     794.00000000     795.00000000     795.00000000     798.00000000     802.00000000     807.00000000     810.00000000     810.00000000     812.00000000     814.00000000     816.00000000     817.00000000     817.00000000     820.00000000     822.00000000     824.00000000     826.00000000     826.00000000     827.00000000     826.00000000     826.00000000     825.00000000     825.00000000     825.00000000     826.00000000     828.00000000     830.00000000     830.00000000     832.00000000     834.00000000     835.00000000     837.00000000     837.00000000     839.00000000     842.00000000     845.00000000     848.00000000     857.00000000     861.00000000     861.00000000     832.00000000     807.00000000     824.00000000     851.00000000     895.00000000
         700.00000000     625.00000000     613.00000000     607.00000000     610.00000000     615.00000000     614.00000000     615.00000000     626.00000000     621.00000000     662.00000000     656.00000000     638.00000000     641.00000000     638.00000000     641.00000000     653.00000000     652.00000000     680.00000000     712.00000000     730.00000000     765.00000000     774.00000000     783.00000000     786.00000000     784.00000000     770.00000000     760.00000000     766.00000000     765.00000000     769.00000000     770.00000000     768.00000000     766.00000000     766.00000000     765.00000000     763.00000000     761.00000000     761.00000000     761.00000000     760.00000000     759.00000000     758.00000000     758.00000000     758.00000000     760.00000000     764.00000000     767.00000000     771.00000000     771.00000000     774.00000000     779.00000000     783.00000000     786.00000000     786.00000000     789.00000000     791.00000000     792.00000000     792.00000000     792.00000000     792.00000000     793.00000000     794.00000000     795.00000000     795.00000000     798.00000000     802.00000000     807.00000000     810.00000000     810.00000000     812.00000000     814.00000000     816.00000000     817.00000000     817.00000000     820.00000000     822.00000000     824.00000000     826.00000000     826.00000000     827.00000000     826.00000000     826.00000000     825.00000000     825.00000000     825.00000000     826.00000000     828.00000000     830.00000000     830.00000000     832.00000000     834.00000000     835.00000000     837.00000000     837.00000000     839.00000000     842.00000000     845.00000000     848.00000000     857.00000000     861.00000000     861.00000000     832.00000000     807.00000000     824.00000000     851.00000000     895.00000000
         700.00000000     625.00000000     613.00000000     607.00000000     610.00000000     615.00000000     614.00000000     615.00000000     626.00000000     621.00000000     662.00000000     656.00000000     638.00000000     641.00000000     638.00000000     641.00000000     653.00000000     652.00000000     680.00000000     712.00000000     730.00000000     765.00000000     774.00000000     783.00000000     786.00000000     784.00000000     770.00000000     760.00000000     766.00000000     765.00000000     769.00000000     770.00000000     768.00000000     766.00000000     766.00000000     765.00000000     763.00000000     761.00000000     761.00000000     761.00000000     760.00000000     759.00000000     758.00000000     758.00000000     758.00000000     760.00000000     764.00000000     767.00000000     771.00000000     771.00000000     774.00000000     779.00000000     783.00000000     786.00000000     786.00000000     789.00000000     791.00000000     792.00000000     792.00000000     792.00000000     792.00000000     793.00000000     794.00000000     795.00000000     795.00000000     798.00000000     802.00000000     807.00000000     810.00000000     810.00000000     812.00000000     814.00000000     816.00000000     817.00000000     817.00000000     820.00000000     822.00000000     824.00000000     826.00000000     826.00000000     827.00000000     826.00000000     826.00000000     825.00000000     825.00000000     825.00000000     826.00000000     828.00000000     830.00000000     830.00000000     832.00000000     834.00000000     835.00000000     837.00000000     837.00000000     839.00000000     842.00000000     845.00000000     848.00000000     857.00000000     861.00000000     861.00000000     832.00000000     807.00000000     824.00000000     851.00000000     895.00000000
         700.00000000     625.00000000     613.00000000     607.00000000     610.00000000     615.00000000     614.00000000     615.00000000     626.00000000     621.00000000     662.00000000     656.00000000     638.00000000     641.00000000     638.00000000     641.00000000     653.00000000     652.00000000     680.00000000     712.00000000     730.00000000     765.00000000     774.00000000     783.00000000     786.00000000     784.00000000     770.00000000     760.00000000     766.00000000     765.00000000     769.00000000     770.00000000     768.00000000     766.00000000     766.00000000     765.00000000     763.00000000     761.00000000     761.00000000     761.00000000     760.00000000     759.00000000     758.00000000     758.00000000     758.00000000     760.00000000     764.00000000     767.00000000     771.00000000     771.00000000     774.00000000     779.00000000     783.00000000     786.00000000     786.00000000     789.00000000     791.00000000     792.00000000     792.00000000     792.00000000     792.00000000     793.00000000     794.00000000     795.00000000     795.00000000     798.00000000     802.00000000     807.00000000     810.00000000     810.00000000     812.00000000     814.00000000     816.00000000     817.00000000     817.00000000     820.00000000     822.00000000     824.00000000     826.00000000     826.00000000     827.00000000     826.00000000     826.00000000     825.00000000     825.00000000     825.00000000     826.00000000     828.00000000     830.00000000     830.00000000     832.00000000     834.00000000     835.00000000     837.00000000     837.00000000     839.00000000     842.00000000     845.00000000     848.00000000     857.00000000     861.00000000     861.00000000     832.00000000     807.00000000     824.00000000     851.00000000     895.00000000
         700.00000000     625.00000000     613.00000000     607.00000000     610.00000000     615.00000000     614.00000000     615.00000000     626.00000000     621.00000000     662.00000000     656.00000000     638.00000000     641.00000000     638.00000000     641.00000000     653.00000000     652.00000000     680.00000000     712.00000000     730.00000000     765.00000000     774.00000000     783.00000000     786.00000000     784.00000000     770.00000000     760.00000000     766.00000000     765.00000000     769.00000000     770.00000000     768.00000000     766.00000000     766.00000000     765.00000000     763.00000000     761.00000000     761.00000000     761.00000000     760.00000000     759.00000000     758.00000000     758.00000000     758.00000000     760.00000000     764.00000000     767.00000000     771.00000000     771.00000000     774.00000000     779.00000000     783.00000000     786.00000000     786.00000000     789.00000000     791.00000000     792.00000000     792.00000000     792.00000000     792.00000000     793.00000000     794.00000000     795.00000000     795.00000000     798.00000000     802.00000000     807.00000000     810.00000000     810.00000000     812.00000000     814.00000000     816.00000000     817.00000000     817.00000000     820.00000000     822.00000000     824.00000000     826.00000000     826.00000000     827.00000000     826.00000000     826.00000000     825.00000000     825.00000000     825.00000000     826.00000000     828.00000000     830.00000000     830.00000000     832.00000000     834.00000000     835.00000000     837.00000000     837.00000000     839.00000000     842.00000000     845.00000000     848.00000000     857.00000000     861.00000000     861.00000000     832.00000000     807.00000000     824.00000000     851.00000000     895.00000000
         700.00000000     625.00000000     613.00000000     607.00000000     610.00000000     615.00000000     614.00000000     615.00000000     626.00000000     621.00000000     662.00000000     656.00000000     638.00000000     641.00000000     638.00000000     641.00000000     653.00000000     652.00000000     680.00000000     712.00000000     730.00000000     765.00000000     774.00000000     783.00000000     786.00000000     784.00000000     770.00000000     760.00000000     766.00000000     765.00000000     769.00000000     770.00000000     768.00000000     766.00000000     766.00000000     765.00000000     763.00000000     761.00000000     761.00000000     761.00000000     760.00000000     759.00000000     758.00000000     758.00000000     758.00000000     760.00000000     764.00000000     767.00000000     771.00000000     771.00000000     774.00000000     779.00000000     783.00000000     786.00000000     786.00000000     789.00000000     791.00000000     792.00000000     792.00000000     792.00000000     792.00000000     793.00000000     794.00000000     795.00000000     795.00000000     798.00000000     802.00000000     807.00000000     810.00000000     810.00000000     812.00000000     814.00000000     816.00000000     817.00000000     817.00000000     820.00000000     822.00000000     824.00000000     826.00000000     826.00000000     827.00000000     826.00000000     826.00000000     825.00000000     825.00000000     825.00000000     826.00000000     828.00000000     830.00000000     830.00000000     832.00000000     834.00000000     835.00000000     837.00000000     837.00000000     839.00000000     842.00000000     845.00000000     848.00000000     857.00000000     861.00000000     861.00000000     832.00000000     807.00000000     824.00000000     851.00000000     895.00000000
         700.00000000     625.00000000     613.00000000     607.00000000     610.00000000     615.00000000     614.00000000     615.00000000     626.00000000     621.00000000     662.00000000     656.00000000     638.00000000     641.00000000     638.00000000     641.00000000     653.00000000     652.00000000     680.00000000     712.00000000     730.00000000     765.00000000     774.00000000     783.00000000     786.00000000     784.00000000     770.00000000     760.00000000     766.00000000     765.00000000     769.00000000     770.00000000     768.00000000     766.00000000     766.00000000     765.00000000     763.00000000     761.00000000     761.00000000     761.00000000     760.00000000     759.00000000     758.00000000     758.00000000     758.00000000     760.00000000     764.00000000     767.00000000     771.00000000     771.00000000     774.00000000     779.00000000     783.00000000     786.00000000     786.00000000     789.00000000     791.00000000     792.00000000     792.00000000     792.00000000     792.00000000     793.00000000     794.00000000     795.00000000     795.00000000     798.00000000     802.00000000     807.00000000     810.00000000     810.00000000     812.00000000     814.00000000     816.00000000     817.00000000     817.00000000     820.00000000     822.00000000     824.00000000     826.00000000     826.00000000     827.00000000     826.00000000     826.00000000     825.00000000     825.00000000     825.00000000     826.00000000     828.00000000     830.00000000     830.00000000     832.00000000     834.00000000     835.00000000     837.00000000     837.00000000     839.00000000     842.00000000     845.00000000     848.00000000     857.00000000     861.00000000     861.00000000     832.00000000     807.00000000     824.00000000     851.00000000     895.00000000