# File generated by Flopy version 3.3.4 on 06/25/2022 at 19:42:26.
BEGIN options
END options

BEGIN continuous  FILEOUT  mod_drn_gal_w_obs.csv
  gal_w-flow  drn  gal_w_flow
END continuous  FILEOUT  mod_drn_gal_w_obs.csv

