# File generated by Flopy version 3.3.2 on 05/28/2021 at 22:47:30.
BEGIN options
  BUDGET  FILEOUT  modelo_Norte.cbb
  HEAD  FILEOUT  modelo_Norte.hds
END options

BEGIN period  1
  SAVE  HEAD  ALL
  SAVE  BUDGET  ALL
  PRINT  HEAD  LAST
END period  1

