# File generated by Flopy version 3.3.6 on 08/05/2022 at 21:27:01.
BEGIN options
  BOUNDNAMES
  PRINT_FLOWS
  SAVE_FLOWS
  OBS6  FILEIN  modelo_Norte_gal_w.drn.obs
END options

BEGIN dimensions
  MAXBOUND  13
END dimensions

BEGIN period  1225
END period  1225

BEGIN period  1236
  1 90 107     774.25129506  7.50205104E-06  gal_w_flow
END period  1236

BEGIN period  1250
  1 90 107     774.25129506  7.50205104E-06  gal_w_flow
  1 86 140     774.08095073  7.50205104E-06  gal_w_flow
END period  1250

BEGIN period  1265
  1 90 107     774.25129506  7.50205104E-06  gal_w_flow
  1 86 140     774.08095073  7.50205104E-06  gal_w_flow
  1 79 192     787.76574695  7.50205104E-06  gal_w_flow
END period  1265

BEGIN period  1282
  1 90 107     774.25129506  7.50205104E-06  gal_w_flow
  1 86 140     774.08095073  7.50205104E-06  gal_w_flow
  1 79 192     787.76574695  7.50205104E-06  gal_w_flow
  1 77 206     792.55790405  7.50205104E-06  gal_w_flow
  2 77 206     768.90858981  7.50205104E-06  gal_w_flow
END period  1282

BEGIN period  1300
  1 90 107     774.25129506  7.50205104E-06  gal_w_flow
  1 86 140     774.08095073  7.50205104E-06  gal_w_flow
  1 79 192     787.76574695  7.50205104E-06  gal_w_flow
  1 77 206     792.55790405  7.50205104E-06  gal_w_flow
  2 77 206     768.90858981  7.50205104E-06  gal_w_flow
  1 75 220     797.46569629  7.50205104E-06  gal_w_flow
  2 75 220     789.70206637  7.50205104E-06  gal_w_flow
  3 75 220     781.93843645  7.50205104E-06  gal_w_flow
END period  1300

BEGIN period  1320
  1 90 107     774.25129506  7.50205104E-06  gal_w_flow
  1 86 140     774.08095073  7.50205104E-06  gal_w_flow
  1 79 192     787.76574695  7.50205104E-06  gal_w_flow
  1 77 206     792.55790405  7.50205104E-06  gal_w_flow
  2 77 206     768.90858981  7.50205104E-06  gal_w_flow
  1 75 220     797.46569629  7.50205104E-06  gal_w_flow
  2 75 220     789.70206637  7.50205104E-06  gal_w_flow
  3 75 220     781.93843645  7.50205104E-06  gal_w_flow
  1 72 244     815.43041039  7.50205104E-06  gal_w_flow
  2 72 244     799.63482001  7.50205104E-06  gal_w_flow
  3 72 244     783.83922963  7.50205104E-06  gal_w_flow
END period  1320

BEGIN period  1341
  1 90 107     774.25129506  7.50205104E-06  gal_w_flow
  1 86 140     774.08095073  7.50205104E-06  gal_w_flow
  1 79 192     787.76574695  7.50205104E-06  gal_w_flow
  1 77 206     792.55790405  7.50205104E-06  gal_w_flow
  2 77 206     768.90858981  7.50205104E-06  gal_w_flow
  1 75 220     797.46569629  7.50205104E-06  gal_w_flow
  2 75 220     789.70206637  7.50205104E-06  gal_w_flow
  3 75 220     781.93843645  7.50205104E-06  gal_w_flow
  1 72 244     815.43041039  7.50205104E-06  gal_w_flow
  2 72 244     799.63482001  7.50205104E-06  gal_w_flow
  3 72 244     783.83922963  7.50205104E-06  gal_w_flow
  1 82 172     780.09731951  7.50205104E-06  gal_w_flow
  2 82 172     753.99591329  7.50205104E-06  gal_w_flow
END period  1341

