# File generated by Flopy version 3.3.4 on 06/25/2022 at 19:42:27.
BEGIN options
  BUDGET  FILEOUT  modelo_Norte.cbb
  HEAD  FILEOUT  modelo_Norte.hds
END options

BEGIN period  1
  SAVE  HEAD  ALL
  SAVE  BUDGET  ALL
  PRINT  HEAD  LAST
END period  1

