# File generated by Flopy version 3.3.4 on 08/28/2021 at 11:37:42.
BEGIN options
  PRINT_INPUT
  PRINT_FLOWS
  SAVE_FLOWS
END options

BEGIN dimensions
  MAXBOUND  16
END dimensions

BEGIN period  1111
  1 39 43     748.00000000  2.43837501E-04
END period  1111

BEGIN period  1130
  1 39 43     748.00000000  2.43837501E-04
  2 39 44     748.32502778  3.02462089E-04
END period  1130

BEGIN period  1148
  1 39 43     748.00000000  2.43837501E-04
  2 39 44     748.32502778  3.02462089E-04
  2 39 45     748.72820031  3.02462089E-04
END period  1148

BEGIN period  1157
  1 39 43     748.00000000  2.43837501E-04
  2 39 44     748.32502778  3.02462089E-04
  2 39 45     748.72820031  3.02462089E-04
  3 39 46     749.13137284  1.49312490E-04
END period  1157

BEGIN period  1166
  1 39 43     748.00000000  2.43837501E-04
  2 39 44     748.32502778  3.02462089E-04
  2 39 45     748.72820031  3.02462089E-04
  3 39 46     749.13137284  1.49312490E-04
  2 38 46     749.33040173  1.53149599E-04
END period  1166

BEGIN period  1185
  1 39 43     748.00000000  2.43837501E-04
  2 39 44     748.32502778  3.02462089E-04
  2 39 45     748.72820031  3.02462089E-04
  3 39 46     749.13137284  1.49312490E-04
  2 38 46     749.33040173  1.53149599E-04
  2 38 47     749.53454537  3.02462089E-04
END period  1185

BEGIN period  1203
  1 39 43     748.00000000  2.43837501E-04
  2 39 44     748.32502778  3.02462089E-04
  2 39 45     748.72820031  3.02462089E-04
  3 39 46     749.13137284  1.49312490E-04
  2 38 46     749.33040173  1.53149599E-04
  2 38 47     749.53454537  3.02462089E-04
  2 38 48     749.93771790  3.02462089E-04
END period  1203

BEGIN period  1221
  1 39 43     748.00000000  2.43837501E-04
  2 39 44     748.32502778  3.02462089E-04
  2 39 45     748.72820031  3.02462089E-04
  3 39 46     749.13137284  1.49312490E-04
  2 38 46     749.33040173  1.53149599E-04
  2 38 47     749.53454537  3.02462089E-04
  2 38 48     749.93771790  3.02462089E-04
  3 38 49     750.34089042  3.02462089E-04
END period  1221

BEGIN period  1240
  1 39 43     748.00000000  2.43837501E-04
  2 39 44     748.32502778  3.02462089E-04
  2 39 45     748.72820031  3.02462089E-04
  3 39 46     749.13137284  1.49312490E-04
  2 38 46     749.33040173  1.53149599E-04
  2 38 47     749.53454537  3.02462089E-04
  2 38 48     749.93771790  3.02462089E-04
  3 38 49     750.34089042  3.02462089E-04
  3 38 50     750.74406295  3.02462089E-04
END period  1240

BEGIN period  1258
  1 39 43     748.00000000  2.43837501E-04
  2 39 44     748.32502778  3.02462089E-04
  2 39 45     748.72820031  3.02462089E-04
  3 39 46     749.13137284  1.49312490E-04
  2 38 46     749.33040173  1.53149599E-04
  2 38 47     749.53454537  3.02462089E-04
  2 38 48     749.93771790  3.02462089E-04
  3 38 49     750.34089042  3.02462089E-04
  3 38 50     750.74406295  3.02462089E-04
  3 38 51     751.14723548  3.02462089E-04
END period  1258

BEGIN period  1276
  1 39 43     748.00000000  2.43837501E-04
  2 39 44     748.32502778  3.02462089E-04
  2 39 45     748.72820031  3.02462089E-04
  3 39 46     749.13137284  1.49312490E-04
  2 38 46     749.33040173  1.53149599E-04
  2 38 47     749.53454537  3.02462089E-04
  2 38 48     749.93771790  3.02462089E-04
  3 38 49     750.34089042  3.02462089E-04
  3 38 50     750.74406295  3.02462089E-04
  3 38 51     751.14723548  3.02462089E-04
  3 38 52     751.55040801  3.02462089E-04
END period  1276

BEGIN period  1295
  1 39 43     748.00000000  2.43837501E-04
  2 39 44     748.32502778  3.02462089E-04
  2 39 45     748.72820031  3.02462089E-04
  3 39 46     749.13137284  1.49312490E-04
  2 38 46     749.33040173  1.53149599E-04
  2 38 47     749.53454537  3.02462089E-04
  2 38 48     749.93771790  3.02462089E-04
  3 38 49     750.34089042  3.02462089E-04
  3 38 50     750.74406295  3.02462089E-04
  3 38 51     751.14723548  3.02462089E-04
  3 38 52     751.55040801  3.02462089E-04
  3 38 53     751.95358054  3.02462089E-04
END period  1295

BEGIN period  1302
  1 39 43     748.00000000  2.43837501E-04
  2 39 44     748.32502778  3.02462089E-04
  2 39 45     748.72820031  3.02462089E-04
  3 39 46     749.13137284  1.49312490E-04
  2 38 46     749.33040173  1.53149599E-04
  2 38 47     749.53454537  3.02462089E-04
  2 38 48     749.93771790  3.02462089E-04
  3 38 49     750.34089042  3.02462089E-04
  3 38 50     750.74406295  3.02462089E-04
  3 38 51     751.14723548  3.02462089E-04
  3 38 52     751.55040801  3.02462089E-04
  3 38 53     751.95358054  3.02462089E-04
  4 38 54     752.35675307  1.26371446E-04
END period  1302

BEGIN period  1313
  1 39 43     748.00000000  2.43837501E-04
  2 39 44     748.32502778  3.02462089E-04
  2 39 45     748.72820031  3.02462089E-04
  3 39 46     749.13137284  1.49312490E-04
  2 38 46     749.33040173  1.53149599E-04
  2 38 47     749.53454537  3.02462089E-04
  2 38 48     749.93771790  3.02462089E-04
  3 38 49     750.34089042  3.02462089E-04
  3 38 50     750.74406295  3.02462089E-04
  3 38 51     751.14723548  3.02462089E-04
  3 38 52     751.55040801  3.02462089E-04
  3 38 53     751.95358054  3.02462089E-04
  4 38 54     752.35675307  1.26371446E-04
  4 37 54     752.52520226  1.76090642E-04
END period  1313

BEGIN period  1331
  1 39 43     748.00000000  2.43837501E-04
  2 39 44     748.32502778  3.02462089E-04
  2 39 45     748.72820031  3.02462089E-04
  3 39 46     749.13137284  1.49312490E-04
  2 38 46     749.33040173  1.53149599E-04
  2 38 47     749.53454537  3.02462089E-04
  2 38 48     749.93771790  3.02462089E-04
  3 38 49     750.34089042  3.02462089E-04
  3 38 50     750.74406295  3.02462089E-04
  3 38 51     751.14723548  3.02462089E-04
  3 38 52     751.55040801  3.02462089E-04
  3 38 53     751.95358054  3.02462089E-04
  4 38 54     752.35675307  1.26371446E-04
  4 37 54     752.52520226  1.76090642E-04
  4 37 55     752.75992559  3.02462089E-04
END period  1331

BEGIN period  1335
  1 39 43     748.00000000  2.43837501E-04
  2 39 44     748.32502778  3.02462089E-04
  2 39 45     748.72820031  3.02462089E-04
  3 39 46     749.13137284  1.49312490E-04
  2 38 46     749.33040173  1.53149599E-04
  2 38 47     749.53454537  3.02462089E-04
  2 38 48     749.93771790  3.02462089E-04
  3 38 49     750.34089042  3.02462089E-04
  3 38 50     750.74406295  3.02462089E-04
  3 38 51     751.14723548  3.02462089E-04
  3 38 52     751.55040801  3.02462089E-04
  3 38 53     751.95358054  3.02462089E-04
  4 38 54     752.35675307  1.26371446E-04
  4 37 54     752.52520226  1.76090642E-04
  4 37 55     752.75992559  3.02462089E-04
  4 37 56     753.16309812  6.51942324E-05
END period  1335

