# File generated by Flopy version 3.3.6 on 08/05/2022 at 21:26:59.
BEGIN options
  SAVE_FLOWS
END options

BEGIN dimensions
  MAXBOUND  347
END dimensions

BEGIN period  1
    OPEN/CLOSE  'ghb_4_0.txt'
END period  1

BEGIN period  31
    OPEN/CLOSE  'ghb_4_1.txt'
END period  31

BEGIN period  59
    OPEN/CLOSE  'ghb_4_2.txt'
END period  59

BEGIN period  90
    OPEN/CLOSE  'ghb_4_3.txt'
END period  90

BEGIN period  120
    OPEN/CLOSE  'ghb_4_4.txt'
END period  120

BEGIN period  151
    OPEN/CLOSE  'ghb_4_5.txt'
END period  151

BEGIN period  181
    OPEN/CLOSE  'ghb_4_6.txt'
END period  181

BEGIN period  212
    OPEN/CLOSE  'ghb_4_7.txt'
END period  212

BEGIN period  243
    OPEN/CLOSE  'ghb_4_8.txt'
END period  243

BEGIN period  273
    OPEN/CLOSE  'ghb_4_9.txt'
END period  273

BEGIN period  304
    OPEN/CLOSE  'ghb_4_10.txt'
END period  304

BEGIN period  334
    OPEN/CLOSE  'ghb_4_11.txt'
END period  334

BEGIN period  365
    OPEN/CLOSE  'ghb_4_12.txt'
END period  365

BEGIN period  396
    OPEN/CLOSE  'ghb_4_13.txt'
END period  396

BEGIN period  424
    OPEN/CLOSE  'ghb_4_14.txt'
END period  424

BEGIN period  455
    OPEN/CLOSE  'ghb_4_15.txt'
END period  455

BEGIN period  485
    OPEN/CLOSE  'ghb_4_16.txt'
END period  485

BEGIN period  516
    OPEN/CLOSE  'ghb_4_17.txt'
END period  516

BEGIN period  546
    OPEN/CLOSE  'ghb_4_18.txt'
END period  546

BEGIN period  577
    OPEN/CLOSE  'ghb_4_19.txt'
END period  577

BEGIN period  608
    OPEN/CLOSE  'ghb_4_20.txt'
END period  608

BEGIN period  638
    OPEN/CLOSE  'ghb_4_21.txt'
END period  638

BEGIN period  669
    OPEN/CLOSE  'ghb_4_22.txt'
END period  669

BEGIN period  699
    OPEN/CLOSE  'ghb_4_23.txt'
END period  699

BEGIN period  730
    OPEN/CLOSE  'ghb_4_24.txt'
END period  730

BEGIN period  761
    OPEN/CLOSE  'ghb_4_25.txt'
END period  761

BEGIN period  789
    OPEN/CLOSE  'ghb_4_26.txt'
END period  789

BEGIN period  820
    OPEN/CLOSE  'ghb_4_27.txt'
END period  820

BEGIN period  850
    OPEN/CLOSE  'ghb_4_28.txt'
END period  850

BEGIN period  881
    OPEN/CLOSE  'ghb_4_29.txt'
END period  881

BEGIN period  911
    OPEN/CLOSE  'ghb_4_30.txt'
END period  911

BEGIN period  942
    OPEN/CLOSE  'ghb_4_31.txt'
END period  942

BEGIN period  973
    OPEN/CLOSE  'ghb_4_32.txt'
END period  973

BEGIN period  1003
    OPEN/CLOSE  'ghb_4_33.txt'
END period  1003

BEGIN period  1034
    OPEN/CLOSE  'ghb_4_34.txt'
END period  1034

BEGIN period  1064
    OPEN/CLOSE  'ghb_4_35.txt'
END period  1064

BEGIN period  1095
    OPEN/CLOSE  'ghb_4_36.txt'
END period  1095

BEGIN period  1126
    OPEN/CLOSE  'ghb_4_37.txt'
END period  1126

BEGIN period  1155
    OPEN/CLOSE  'ghb_4_38.txt'
END period  1155

BEGIN period  1186
    OPEN/CLOSE  'ghb_4_39.txt'
END period  1186

BEGIN period  1216
    OPEN/CLOSE  'ghb_4_40.txt'
END period  1216

BEGIN period  1247
    OPEN/CLOSE  'ghb_4_41.txt'
END period  1247

BEGIN period  1277
    OPEN/CLOSE  'ghb_4_42.txt'
END period  1277

BEGIN period  1308
    OPEN/CLOSE  'ghb_4_43.txt'
END period  1308

BEGIN period  1339
    OPEN/CLOSE  'ghb_4_44.txt'
END period  1339

BEGIN period  1369
    OPEN/CLOSE  'ghb_4_45.txt'
END period  1369

BEGIN period  1400
    OPEN/CLOSE  'ghb_4_46.txt'
END period  1400

BEGIN period  1430
    OPEN/CLOSE  'ghb_4_47.txt'
END period  1430

BEGIN period  1461
    OPEN/CLOSE  'ghb_4_48.txt'
END period  1461

BEGIN period  1492
    OPEN/CLOSE  'ghb_4_49.txt'
END period  1492

BEGIN period  1520
    OPEN/CLOSE  'ghb_4_50.txt'
END period  1520

BEGIN period  1551
    OPEN/CLOSE  'ghb_4_51.txt'
END period  1551

BEGIN period  1581
    OPEN/CLOSE  'ghb_4_52.txt'
END period  1581

BEGIN period  1612
    OPEN/CLOSE  'ghb_4_53.txt'
END period  1612

BEGIN period  1642
    OPEN/CLOSE  'ghb_4_54.txt'
END period  1642

BEGIN period  1673
    OPEN/CLOSE  'ghb_4_55.txt'
END period  1673

BEGIN period  1704
    OPEN/CLOSE  'ghb_4_56.txt'
END period  1704

BEGIN period  1734
    OPEN/CLOSE  'ghb_4_57.txt'
END period  1734

BEGIN period  1765
    OPEN/CLOSE  'ghb_4_58.txt'
END period  1765

BEGIN period  1795
    OPEN/CLOSE  'ghb_4_59.txt'
END period  1795

