# File generated by Flopy version 3.3.4 on 08/28/2021 at 11:37:42.
BEGIN options
  PRINT_INPUT
  PRINT_FLOWS
  SAVE_FLOWS
END options

BEGIN dimensions
  MAXBOUND  433
END dimensions

BEGIN period  1
  1 16 22     672.56011963       0.03600000
  1 50 24     834.38769531       0.03600000
  1 19 18     637.10980225       0.03600000
  1 48 63     967.43487549       0.03600000
  1 37 63     733.80279541       0.02400000
  1 27 40     690.40576172       0.03600000
  1 29 59     751.12646484       0.03600000
  1 19 36     653.00000000       0.03600000
  1 20 19     642.85174561       0.03600000
  1 30 51     763.51037598       0.02400000
  1 53 25     859.36218262       0.03600000
  1 45 21     788.83325195       0.03600000
  1 42 34     823.25225830       0.03600000
  1 35 4     633.98345947       0.02400000
  1 26 35     713.00000000       0.03600000
  1 46 22     796.07971191       0.03600000
  1 44 61     861.36584473       0.03600000
  1 33 61     713.73455811       0.03600000
  1 27 8     618.05303955       0.03600000
  1 16 17     634.18487549       0.03600000
  1 37 49     781.56628418       0.01600000
  1 19 22     677.94958496       0.03600000
  1 19 31     679.67492676       0.03600000
  1 30 46     706.71820068       0.02400000
  1 41 46     786.82312012       0.02400000
  1 42 11     681.00000000       0.03600000
  1 42 20     812.46954346       0.03600000
  1 45 16     756.93023682       0.03600000
  1 30 64     669.14031982       0.03600000
  1 34 25     765.84033203       0.03600000
  1 26 21     671.19714355       0.03600000
  1 34 34     776.45202637       0.03600000
  1 46 17     774.23754883       0.03600000
  1 27 21     673.14239502       0.03600000
  1 29 40     708.94616699       0.03600000
  1 22 19     649.00000000       0.03600000
  1 41 41     767.56152344       0.03600000
  1 34 2     626.79772949       0.03600000
  1 30 50     747.88732910       0.02400000
  1 45 20     780.04504395       0.03600000
  1 40 63     782.63446045       0.03600000
  1 35 3     628.49890137       0.02400000
  1 26 34     720.20989990       0.03600000
  1 26 43     681.37628174       0.02400000
  1 23 19     653.00000000       0.03600000
  1 38 17     708.89404297       0.02400000
  1 36 47     768.91644287       0.01600000
  1 25 56     655.00000000       0.02400000
  1 27 7     616.53112793       0.03600000
  1 29 44     691.00000000       0.02400000
  1 41 9     668.22741699       0.03600000
  1 29 62     676.79199219       0.03600000
  1 30 45     704.38616943       0.02400000
  1 41 45     783.56414795       0.02400000
  1 42 10     671.08166504       0.03600000
  1 22 41     648.53356934       0.03600000
  1 42 19     788.25952148       0.03600000
  1 34 24     751.01080322       0.03600000
  1 45 24     830.19317627       0.03600000
  1 32 63     692.35418701       0.03600000
  1 44 46     817.00000000       0.02400000
  1 38 12     719.64141846       0.02400000
  1 36 42     747.71844482       0.01600000
  1 15 19     638.42926025       0.03600000
  1 17 38     640.62109375       0.03600000
  1 33 64     693.31781006       0.03600000
  1 25 60     663.56060791       0.03600000
  1 48 25     880.35107422       0.03600000
  1 18 21     661.42736816       0.03600000
  1 29 21     684.33459473       0.03600000
  1 37 34     787.52764893       0.02400000
  1 18 30     660.01745605       0.03600000
  1 29 39     713.29559326       0.03600000
  1 29 57     763.45812988       0.02400000
  1 30 22     696.49328613       0.03600000
  1 34 1     623.00000000       0.03600000
  1 45 19     759.60809326       0.03600000
  1 40 53     815.24572754       0.02400000
  1 40 62     775.85900879       0.03600000
  1 32 58     782.68890381       0.03600000
  1 33 23     740.69042969       0.03600000
  1 33 41     735.00000000       0.03600000
  1 36 46     765.55157471       0.01600000
  1 48 20     818.75524902       0.03600000
  1 36 64     731.09289551       0.02400000
  1 29 34     728.47039795       0.03600000
  1 30 8     621.53344727       0.03600000
  1 49 21     810.88049316       0.03600000
  1 43 45     799.05480957       0.02400000
  1 32 35     756.47064209       0.03600000
  1 21 35     673.00000000       0.03600000
  1 32 44     735.00000000       0.02400000
  1 33 9     645.22332764       0.03600000
  1 24 40     657.85784912       0.03600000
  1 32 62     695.36157227       0.03600000
  1 44 45     815.99432373       0.02400000
  1 25 41     662.75854492       0.03600000
  1 37 6     645.00000000       0.02400000
  1 48 24     858.72875977       0.03600000
  1 18 38     649.00000000       0.03600000
  1 43 40     795.12341309       0.03600000
  1 40 34     806.15319824       0.03600000
  1 40 43     772.40942383       0.02400000
  1 24 35     689.55065918       0.03600000
  1 33 13     695.19964600       0.03600000
  1 32 57     801.80120850       0.02400000
  1 24 53     654.08673096       0.02400000
  1 17 23     691.00000000       0.03600000
  1 17 32     635.68511963       0.03600000
  1 36 45     764.93475342       0.01600000
  1 37 19     729.00610352       0.02400000
  1 48 19     759.19030762       0.03600000
  1 6 13     609.00000000       0.03600000
  1 18 24     701.00000000       0.03600000
  1 43 26     893.64904785       0.03600000
  1 7 14     609.37493896       0.03600000
  1 40 11     676.03076172       0.03600000
  1 43 44     805.03863525       0.02400000
  1 28 55     744.74017334       0.02400000
  1 31 51     757.75378418       0.02400000
  1 43 62     828.62805176       0.03600000
  1 21 25     732.91101074       0.03600000
  1 32 34     759.00000000       0.03600000
  1 32 43     717.00000000       0.02400000
  1 24 39     669.06640625       0.03600000
  1 36 4     636.73370361       0.02400000
  1 32 52     775.82348633       0.02400000
  1 44 17     734.10290527       0.03600000
  1 44 26     893.61450195       0.03600000
  1 17 18     639.00000000       0.03600000
  1 46 63     908.20379639       0.03600000
  1 37 5     639.00000000       0.02400000
  1 17 36     640.37048340       0.03600000
  1 39 42     755.55993652       0.01600000
  1 47 64     955.69104004       0.03600000
  1 51 25     851.92382812       0.03600000
  1 43 39     799.00000000       0.03600000
  1 31 46     706.05627441       0.02400000
  1 28 59     738.01562500       0.03600000
  1 13 16     621.00000000       0.03600000
  1 31 64     674.23223877       0.03600000
  1 21 29     711.00000000       0.03600000
  1 40 42     753.71850586       0.02400000
  1 33 12     673.00000000       0.03600000
  1 14 17     623.37530518       0.03600000
  1 17 22     675.66735840       0.03600000
  1 47 23     824.48773193       0.03600000
  1 38 63     741.23937988       0.02400000
  1 27 35     719.00000000       0.03600000
  1 16 35     639.00000000       0.03600000
  1 43 16     736.99725342       0.03600000
  1 20 23     700.69567871       0.03600000
  1 31 23     727.58892822       0.03600000
  1 40 10     679.84271240       0.03600000
  1 28 54     735.00000000       0.02400000
  1 31 50     742.24206543       0.02400000
  1 42 47     802.95715332       0.02400000
  1 21 24     726.45782471       0.03600000
  1 32 24     752.26019287       0.03600000
  1 24 20     663.65502930       0.03600000
  1 45 61     886.64996338       0.03600000
  1 34 61     722.22979736       0.03600000
  1 26 57     714.31640625       0.02400000
  1 35 44     763.00000000       0.01600000
  1 17 17     638.46325684       0.03600000
  1 47 18     744.56951904       0.03600000
  1 38 49     787.65557861       0.01600000
  1 39 14     691.92224121       0.02400000
  1 46 62     903.54211426       0.03600000
  1 16 21     653.75524902       0.03600000
  1 50 23     812.01812744       0.03600000
  1 16 30     632.95953369       0.03600000
  1 31 9     631.06115723       0.03600000
  1 27 57     731.10327148       0.02400000
  1 51 24     815.46063232       0.03600000
  1 43 20     811.94128418       0.03600000
  1 20 18     647.58587646       0.03600000
  1 28 40     694.23364258       0.03600000
  1 20 36     663.02032471       0.03600000
  1 40 14     691.51794434       0.03600000
  1 31 45     704.34503174       0.02400000
  1 21 19     645.25640869       0.03600000
  1 35 21     746.96606445       0.02400000
  1 46 21     780.28326416       0.03600000
  1 38 35     789.70043945       0.02400000
  1 16 25     713.00000000       0.03600000
  1 50 27     887.80963135       0.03600000
  1 19 21     673.00000000       0.03600000
  1 27 34     717.45574951       0.03600000
  1 19 30     680.44390869       0.03600000
  1 27 43     681.00000000       0.02400000
  1 28 8     621.00000000       0.03600000
  1 43 15     733.45849609       0.03600000
  1 20 22     685.78918457       0.03600000
  1 31 22     712.75769043       0.03600000
  1 20 31     693.43670654       0.03600000
  1 40 9     661.84082031       0.03600000
  1 45 33     848.56640625       0.03600000
  1 34 42     746.24499512       0.02400000
  1 24 19     653.00000000       0.03600000
  1 46 16     743.82055664       0.03600000
  1 45 60     902.83959961       0.03600000
  1 26 56     718.32574463       0.02400000
  1 35 34     782.45587158       0.02400000
  1 23 41     647.53894043       0.03600000
  1 35 43     756.52355957       0.01600000
  1 47 17     737.00000000       0.03600000
  1 38 48     793.00000000       0.01600000
  1 16 20     645.00000000       0.03600000
  1 50 22     784.07678223       0.03600000
  1 31 8     625.05358887       0.03600000
  1 28 21     681.00000000       0.03600000
  1 30 49     731.45434570       0.02400000
  1 42 41     803.35614014       0.03600000
  1 26 24     710.62335205       0.03600000
  1 35 2     627.00000000       0.02400000
  1 45 46     819.48382568       0.02400000
  1 26 42     672.65014648       0.02400000
  1 35 20     747.11041260       0.02400000
  1 46 20     790.13439941       0.03600000
  1 38 16     701.74206543       0.02400000
  1 34 64     700.15643311       0.03600000
  1 26 60     669.00000000       0.03600000
  1 38 34     796.17272949       0.02400000
  1 39 17     726.87689209       0.02400000
  1 16 24     710.57470703       0.03600000
  1 50 26     863.31610107       0.03600000
  1 29 61     691.50482178       0.03600000
  1 28 7     621.00000000       0.03600000
  1 30 35     745.74267578       0.03600000
  1 41 44     773.04595947       0.02400000
  1 42 9     667.84448242       0.03600000
  1 45 14     716.42242432       0.03600000
  1 30 62     687.15570068       0.03600000
  1 53 27     880.11505127       0.03600000
  1 41 62     786.94805908       0.03600000
  1 34 23     745.53411865       0.03600000
  1 45 23     803.92529297       0.03600000
  1 34 41     727.02929688       0.03600000
  1 46 15     716.07238770       0.03600000
  1 15 18     631.00000000       0.03600000
  1 46 33     858.84381104       0.03600000
  1 44 63     858.24902344       0.03600000
  1 23 40     652.19165039       0.03600000
  1 25 59     660.40655518       0.03600000
  1 39 12     700.25177002       0.02400000
  1 37 42     743.00000000       0.01600000
  1 16 19     644.79321289       0.03600000
  1 29 47     711.98040771       0.02400000
  1 19 24     704.01696777       0.03600000
  1 29 56     763.64080811       0.02400000
  1 30 39     715.10559082       0.03600000
  1 22 35     681.00000000       0.03600000
  1 30 48     718.94891357       0.02400000
  1 42 13     710.92553711       0.03600000
  1 45 18     739.42999268       0.03600000
  1 34 27     787.08898926       0.03600000
  1 42 40     780.56561279       0.03600000
  1 26 23     695.90692139       0.03600000
  1 26 41     670.14178467       0.03600000
  1 38 6     645.36389160       0.02400000
  1 36 63     738.31353760       0.02400000
  1 49 20     776.67224121       0.03600000
  1 41 16     731.39556885       0.03600000
  1 29 60     723.03839111       0.03600000
  1 30 34     743.95275879       0.03600000
  1 41 34     812.80859375       0.03600000
  1 41 43     763.28979492       0.02400000
  1 53 26     861.84930420       0.03600000
  1 45 22     790.33703613       0.03600000
  1 32 61     707.11126709       0.03600000
  1 33 35     762.08892822       0.03600000
  1 46 14     732.56481934       0.03600000
  1 44 44     821.57000732       0.02400000
  1 25 40     665.77752686       0.03600000
  1 15 17     626.96429443       0.03600000
  1 36 49     777.31182861       0.01600000
  1 44 62     844.23730469       0.03600000
  1 33 62     702.11523438       0.03600000
  1 25 58     657.00000000       0.03600000
  1 18 37     646.66906738       0.03600000
  1 29 46     704.49481201       0.02400000
  1 29 55     763.16674805       0.02400000
  1 30 38     727.78979492       0.03600000
  1 42 12     681.00000000       0.03600000
  1 45 17     755.58496094       0.03600000
  1 52 25     844.75946045       0.03600000
  1 26 22     685.54150391       0.03600000
  1 44 39     815.73028564       0.03600000
  1 25 35     709.04602051       0.03600000
  1 36 44     761.35943604       0.01600000
  1 25 53     694.67541504       0.02400000
  1 37 18     716.98077393       0.02400000
  1 48 18     758.36700439       0.03600000
  1 18 23     692.50219727       0.03600000
  1 18 32     648.60577393       0.03600000
  1 49 19     754.60162354       0.03600000
  1 7 13     609.00000000       0.03600000
  1 41 15     721.54016113       0.03600000
  1 32 42     721.24993896       0.02400000
  1 32 51     765.25341797       0.02400000
  1 44 16     721.50726318       0.03600000
  1 32 60     731.56457520       0.03600000
  1 44 25     856.80419922       0.03600000
  1 25 21     674.08447266       0.03600000
  1 33 34     768.74584961       0.03600000
  1 36 48     773.00000000       0.01600000
  1 37 13     742.47186279       0.02400000
  1 18 18     636.67517090       0.03600000
  1 47 63     933.33007812       0.03600000
  1 18 36     646.63940430       0.03600000
  1 29 45     703.00000000       0.02400000
  1 43 38     815.26361084       0.03600000
  1 28 58     749.73449707       0.03600000
  1 31 63     678.86920166       0.03600000
  1 21 28     723.60870361       0.03600000
  1 40 41     762.37884521       0.03600000
  1 32 46     730.69702148       0.02400000
  1 33 11     675.42047119       0.03600000
  1 14 16     621.10491943       0.03600000
  1 32 64     690.97003174       0.03600000
  1 24 60     671.51153564       0.03600000
  1 17 21     654.18878174       0.03600000
  1 25 34     726.24157715       0.03600000
  1 36 34     785.90679932       0.02400000
  1 17 30     638.34631348       0.03600000
  1 25 52     699.84686279       0.02400000
  1 37 17     719.37219238       0.02400000
  1 18 22     676.48693848       0.03600000
  1 29 22     702.39978027       0.03600000
  1 39 63     757.73504639       0.02400000
  1 51 28     919.00000000       0.03600000
  1 41 14     723.00000000       0.03600000
  1 28 44     696.89715576       0.02400000
  1 28 53     737.65496826       0.02400000
  1 31 49     736.83459473       0.02400000
  1 28 62     665.59185791       0.03600000
  1 31 58     783.51763916       0.03600000
  1 32 23     728.01525879       0.03600000
  1 32 41     723.64129639       0.03600000
  1 40 54     818.33728027       0.02400000
  1 44 15     721.15527344       0.03600000
  1 32 59     762.31964111       0.03600000
  1 44 24     853.23486328       0.03600000
  1 36 20     733.00000000       0.02400000
  1 25 20     669.85882568       0.03600000
  1 44 33     841.68200684       0.03600000
  1 17 25     712.30230713       0.03600000
  1 35 61     747.25592041       0.02400000
  1 37 12     735.38269043       0.02400000
  1 29 8     619.00000000       0.03600000
  1 48 21     820.45806885       0.03600000
  1 47 62     929.71722412       0.03600000
  1 27 56     729.00000000       0.02400000
  1 43 19     789.21838379       0.03600000
  1 20 35     670.74230957       0.03600000
  1 40 13     684.86724854       0.03600000
  1 31 44     708.75744629       0.02400000
  1 43 46     813.75708008       0.02400000
  1 28 57     761.60791016       0.02400000
  1 32 9     637.37036133       0.03600000
  1 21 27     744.19946289       0.03600000
  1 33 1     621.96197510       0.03600000
  1 33 10     667.00000000       0.03600000
  1 24 41     653.00000000       0.03600000
  1 39 35     791.00000000       0.02400000
  1 27 42     678.92248535       0.02400000
  1 43 14     714.95672607       0.03600000
  1 27 60     693.73974609       0.03600000
  1 51 27     893.93048096       0.03600000
  1 28 34     722.86352539       0.03600000
  1 20 30     697.00000000       0.03600000
  1 28 43     684.59692383       0.02400000
  1 40 8     651.68078613       0.03600000
  1 31 39     735.00000000       0.03600000
  1 40 17     746.95135498       0.03600000
  1 40 35     802.86181641       0.03600000
  1 33 14     702.81542969       0.03600000
  1 44 14     698.47460938       0.03600000
  1 35 42     739.21478271       0.01600000
  1 36 19     741.62243652       0.02400000
  1 47 16     741.02526855       0.03600000
  1 46 60     935.53698730       0.03600000
  1 17 24     701.00000000       0.03600000
  1 35 60     764.67608643       0.02400000
  1 50 21     785.86938477       0.03600000
  1 27 55     727.25756836       0.02400000
  1 43 18     769.86102295       0.03600000
  1 31 34     754.66796875       0.03600000
  1 40 12     696.63861084       0.03600000
  1 42 49     814.77233887       0.02400000
  1 45 63     880.14892578       0.03600000
  1 36 5     639.00000000       0.02400000
  1 26 59     688.11364746       0.03600000
  1 23 35     681.00000000       0.03600000
  1 38 42     748.85009766       0.01600000
  1 39 7     649.00000000       0.02400000
  1 39 16     718.60754395       0.02400000
  1 35 64     709.00000000       0.02400000
  1 50 25     842.52612305       0.03600000
  1 19 37     653.48663330       0.03600000
  1 43 13     689.00091553       0.03600000
  1 27 59     720.66595459       0.03600000
  1 12 16     620.76391602       0.03600000
  1 20 29     705.73577881       0.03600000
  1 40 7     655.33404541       0.03600000
  1 30 61     694.27764893       0.03600000
  1 40 16     714.07653809       0.03600000
  1 42 44     781.42559814       0.02400000
  1 5 13     610.35168457       0.03600000
  1 42 62     805.95654297       0.03600000
  1 46 23     825.28558350       0.03600000
  1 35 41     733.00000000       0.02400000
  1 39 11     696.55957031       0.02400000
  1 47 24     844.62402344       0.03600000
  1 19 23     694.85229492       0.03600000
  1 16 36     639.00000000       0.03600000
  1 19 32     669.83398438       0.03600000
  1 43 17     740.12475586       0.03600000
  1 30 47     711.71801758       0.02400000
  1 41 47     795.00000000       0.02400000
  1 20 24     705.32519531       0.03600000
  1 30 65     666.40301514       0.03600000
  1 34 26     782.07604980       0.03600000
  1 42 48     803.57080078       0.02400000
  1 45 44     823.52062988       0.02400000
  1 26 40     684.09320068       0.03600000
  1 46 18     780.06384277       0.03600000
  1 45 62     873.15991211       0.03600000
  1 26 58     698.41766357       0.03600000
  1 39 6     643.27465820       0.02400000
  1 47 19     779.37231445       0.03600000
  1 39 15     691.00000000       0.02400000
END period  1

