# File generated by Flopy version 3.3.2 on 05/27/2021 at 10:50:17.
BEGIN options
  XORIGIN  1.10238512E+06
  YORIGIN  1.28136222E+06
END options

BEGIN dimensions
  NLAY  6
  NROW  35
  NCOL  44
END dimensions

BEGIN griddata
  delr
    INTERNAL  FACTOR  1.0
       100.00000000     100.00000000     100.00000000     100.00000000     100.00000000     100.00000000     100.00000000     100.00000000     100.00000000     100.00000000     100.00000000     100.00000000     100.00000000     100.00000000     100.00000000     100.00000000     100.00000000     100.00000000     100.00000000     100.00000000
       100.00000000     100.00000000     100.00000000      75.00000000      50.00000000      50.00000000      50.00000000      50.00000000      50.00000000      50.00000000      50.00000000      50.00000000      50.00000000      50.00000000      50.00000000      50.00000000      50.00000000      50.00000000      75.00000000     100.00000000
       100.00000000     100.00000000     100.00000000     100.00000000
  delc
    INTERNAL  FACTOR  1.0
       100.00000000     100.00000000     100.00000000     100.00000000     100.00000000     100.00000000     100.00000000     100.00000000     100.00000000     100.00000000     100.00000000     100.00000000     100.00000000     100.00000000     100.00000000     100.00000000     100.00000000     100.00000000     100.00000000     100.00000000
        75.00000000      50.00000000      50.00000000      50.00000000      50.00000000      50.00000000      50.00000000      75.00000000     100.00000000     100.00000000     100.00000000     100.00000000     100.00000000     100.00000000     100.00000000
  top
    INTERNAL  FACTOR  1.0
       694.00000000     613.00000000     610.00000000     610.00000000     619.00000000     614.00000000     621.00000000     620.00000000     676.00000000     658.00000000     638.00000000     642.00000000     645.00000000     654.00000000     663.00000000     706.00000000     730.00000000     770.00000000     781.00000000     785.00000000
       784.00000000     768.00000000     767.00000000     766.00000000     772.00000000     769.00000000     763.00000000     761.00000000     772.00000000     787.00000000     793.00000000     795.00000000     809.00000000     816.00000000     824.00000000     824.00000000     828.00000000     836.00000000     850.00000000     862.00000000
       833.00000000     811.00000000     830.00000000     874.00000000
       707.00000000     649.00000000     618.00000000     621.00000000     625.00000000     648.00000000     657.00000000     626.00000000     626.00000000     625.00000000     623.00000000     636.00000000     633.00000000     637.00000000     670.00000000     717.00000000     756.00000000     753.00000000     765.00000000     776.00000000
       768.00000000     761.00000000     746.00000000     750.00000000     755.00000000     753.00000000     744.00000000     747.00000000     755.00000000     777.00000000     781.00000000     785.00000000     802.00000000     811.00000000     822.00000000     839.00000000     847.00000000     857.00000000     858.00000000     858.00000000
       855.00000000     812.00000000     821.00000000     867.00000000
       763.00000000     698.00000000     687.00000000     687.00000000     708.00000000     699.00000000     657.00000000     616.44909668     608.00000000     610.00000000     611.41168213     612.00000000     612.00000000     614.07159424     616.00000000     662.17846680     708.55450439     711.04809570     752.62329102     743.52783203
       745.49499512     738.00000000     726.36273193     727.23083496     732.85791016     738.62835693     727.95172119     711.47229004     724.83770752     727.57379150     759.69909668     781.27801514     782.85614014     796.24694824     816.31854248     835.36584473     851.01226807     854.18273926     835.65765381     824.60534668
       842.00000000     797.00000000     821.00000000     858.00000000
       806.00000000     736.00000000     734.00000000     723.00000000     709.00000000     685.00000000     636.00000000     608.00000000     624.00000000     611.26983643     612.44769287     616.13354492     618.00000000     629.13690186     626.17730713     622.36090088     673.36151123     732.78936768     755.00189209     731.93908691
       721.24389648     729.13787842     712.34820557     723.01788330     724.10272217     726.13098145     727.89923096     705.06927490     716.62878418     737.23913574     754.46484375     768.13751221     772.00000000     797.86846924     820.31622314     841.92840576     845.56176758     838.22576904     821.91760254     806.34216309
       814.00000000     787.00000000     817.00000000     842.00000000
       789.00000000     778.00000000     758.00000000     726.00000000     686.00000000     653.00000000     623.00000000     608.00000000     610.00000000     620.00000000     616.79168701     617.40338135     624.69073486     642.60321045     643.86956787     619.57586670     694.77832031     744.00000000     732.62329102     713.95141602
       699.50378418     706.47735596     694.57745361     710.97961426     705.70123291     706.47900391     698.29107666     694.00000000     702.90966797     730.17059326     750.12994385     761.05932617     775.79699707     791.43420410     811.44604492     824.00000000     821.70983887     810.43103027     801.17626953     799.77325439
       782.00000000     787.00000000     837.00000000     852.00000000
       757.00000000     748.00000000     735.00000000     698.00000000     666.00000000     624.00000000     620.00000000     608.00000000     610.00000000     616.00000000     618.88757324     620.97381592     625.43756104     652.00000000     645.68676758     620.00000000     669.22027588     730.43078613     702.09832764     708.00000000
       679.76275635     708.57165527     684.69732666     688.78875732     694.00000000     686.76892090     698.58734131     717.16394043     734.27014160     743.15222168     752.47357178     764.55273438     776.55255127     796.30786133     807.74346924     805.53411865     799.15820312     792.78271484     779.08813477     803.20904541
       784.00000000     809.00000000     853.00000000     883.00000000
       753.00000000     719.00000000     706.00000000     668.00000000     638.00000000     618.00000000     620.00000000     608.00000000     610.38317871     616.89611816     618.99273682     622.65039062     646.03479004     656.45739746     647.65930176     627.24291992     640.86810303     706.77502441     672.87902832     673.67736816
       683.82220459     694.91918945     684.07165527     675.48077393     679.35833740     682.75238037     711.13653564     738.00000000     755.90380859     765.75512695     760.22393799     770.80957031     772.00000000     775.93029785     779.13427734     779.36743164     781.49871826     771.46447754     772.47821045     796.00000000
       772.00000000     800.00000000     847.00000000     871.00000000
       745.00000000     715.00000000     696.00000000     682.00000000     644.00000000     621.00000000     622.00000000     608.00000000     611.49017334     620.00000000     620.64862061     624.51922607     653.84027100     675.09405518     664.63385010     642.34307861     628.00000000     645.44110107     653.73388672     658.26434326
       666.15447998     665.25189209     674.40875244     656.00000000     658.00000000     681.73553467     710.15625000     729.11590576     747.77679443     756.12048340     769.37194824     778.00000000     778.31860352     774.69549561     765.24798584     762.04022217     761.62707520     751.75854492     770.88012695     765.00000000
       767.00000000     810.00000000     844.00000000     854.00000000
       716.00000000     704.00000000     683.00000000     662.00000000     633.00000000     623.00000000     623.00000000     608.00000000     612.00000000     620.00000000     624.75695801     627.97625732     656.14807129     681.87719727     686.00000000     668.32189941     630.49029541     626.00000000     638.00000000     651.02691650
       652.99285889     652.54211426     656.00000000     656.00000000     658.96563721     668.78753662     683.68432617     703.10754395     725.65460205     754.07702637     766.72631836     767.67065430     768.78607178     765.03448486     760.54443359     755.31866455     737.65197754     729.60174561     738.00000000     742.00000000
       777.00000000     817.00000000     834.00000000     840.00000000
       693.00000000     680.00000000     665.00000000     652.00000000     630.00000000     626.00000000     623.00000000     609.50122070     614.90197754     624.22821045     630.00000000     646.55371094     658.00000000     698.46063232     703.58184814     696.58801270     672.64593506     632.00000000     634.33038330     637.53887939
       641.19995117     644.65740967     652.00000000     656.44976807     662.56750488     667.32598877     673.77398682     705.19366455     729.90252686     746.26745605     750.52075195     746.78320312     746.42565918     747.16265869     743.98449707     739.27435303     745.70660400     738.00000000     722.00000000     745.00000000
       773.00000000     792.00000000     812.00000000     850.00000000
       680.00000000     671.00000000     651.00000000     640.00000000     627.00000000     627.00000000     623.00000000     610.00000000     625.94860840     637.89154053     637.52301025     648.00000000     656.69226074     688.54876709     704.69256592     721.64746094     696.01300049     639.26580811     632.41766357     632.00000000
       637.58666992     638.73699951     639.03942871     644.04223633     650.67480469     664.23822021     674.09240723     708.72155762     730.83959961     738.76416016     745.20153809     739.26239014     734.69042969     734.81964111     733.89324951     734.20233154     749.00000000     735.00000000     712.00000000     732.00000000
       784.00000000     811.00000000     841.00000000     856.00000000
       678.00000000     657.00000000     645.00000000     629.00000000     624.00000000     625.00000000     620.00000000     612.00000000     616.66369629     644.26525879     636.00000000     648.76062012     664.00000000     694.22674561     711.91082764     740.46582031     724.06066895     673.14245605     663.40911865     660.81207275
       651.03955078     649.59484863     648.02575684     647.63659668     641.24462891     657.98150635     668.74761963     691.53948975     722.67797852     721.65344238     719.05718994     712.70819092     717.96917725     714.13104248     732.56817627     733.23925781     731.00000000     714.00000000     706.00000000     757.00000000
       788.00000000     820.00000000     826.00000000     843.00000000
       673.00000000     659.00000000     640.00000000     626.00000000     623.00000000     624.00000000     624.00000000     612.26123047     631.18542480     649.55688477     648.62268066     650.72229004     680.89251709     702.59869385     718.31817627     739.67065430     733.18194580     698.78167725     693.52514648     696.02239990
       675.02581787     663.05346680     652.71783447     649.21057129     642.57891846     649.79553223     667.14105225     669.72424316     677.57415771     686.86523438     700.02685547     718.10180664     715.48468018     698.75256348     720.20178223     717.00000000     701.00000000     702.00000000     731.00000000     761.00000000
       776.00000000     808.00000000     807.00000000     828.00000000
       673.00000000     656.00000000     627.00000000     625.00000000     626.00000000     626.00000000     612.26202393     613.33135986     631.01715088     666.00000000     653.94488525     653.36297607     677.85931396     718.52886963     738.48620605     741.22326660     732.00000000     711.07934570     709.00323486     712.00000000
       684.52606201     683.57055664     663.97747803     651.04730225     644.76843262     648.00000000     650.05395508     652.59802246     659.16265869     680.00000000     685.50299072     672.00000000     668.03265381     680.59545898     675.93572998     683.00000000     691.00000000     694.00000000     700.00000000     723.00000000
       749.00000000     778.00000000     794.00000000     813.00000000
       659.00000000     656.00000000     625.00000000     629.00000000     627.00000000     628.00000000     613.33135986     631.04339600     646.85852051     663.70318604     667.76391602     655.06781006     677.45788574     713.58532715     738.89697266     742.27648926     731.58776855     724.21630859     717.08111572     715.39166260
       703.04510498     706.09796143     677.70111084     658.00000000     652.00000000     651.21099854     651.65521240     651.83502197     649.84893799     648.09307861     650.00000000     650.86822510     652.00000000     652.00000000     652.00000000     654.00000000     658.46496582     660.47650146     663.28875732     668.70483398
       712.00000000     746.00000000     768.00000000     808.00000000
       653.00000000     639.00000000     626.00000000     627.00000000     630.00000000     614.00000000     614.00000000     648.40197754     659.91729736     680.00000000     677.24212646     672.57348633     674.23046875     699.55291748     733.30780029     742.00000000     742.00000000     738.11804199     734.00000000     734.70513916
       700.00000000     704.40661621     681.98876953     673.92749023     670.35931396     668.28955078     676.84930420     675.98657227     675.83972168     680.00000000     680.25567627     700.33087158     708.94775391     710.00000000     699.12371826     703.76940918     679.77258301     658.50122070     655.33398438     663.42529297
       660.00000000     688.00000000     725.00000000     796.00000000
       646.00000000     631.00000000     628.00000000     629.00000000     616.00000000     616.81640625     639.25769043     659.29571533     670.05578613     694.00000000     682.09576416     693.95941162     673.57629395     698.97265625     739.96148682     743.39422607     745.11859131     740.77056885     734.27587891     726.76000977
       715.70367432     709.70422363     695.71765137     686.92181396     689.19744873     678.06311035     676.46789551     684.35815430     693.83996582     697.91748047     716.46905518     731.64361572     726.74932861     722.39349365     723.10742188     726.75537109     722.00000000     726.00000000     723.37347412     713.18640137
       669.97192383     667.23339844     693.00000000     767.00000000
       639.00000000     633.00000000     615.83697510     620.00000000     618.00000000     626.69207764     650.95019531     657.37933350     679.86999512     714.50170898     688.60552979     702.13861084     680.00000000     719.94152832     750.89385986     755.84020996     749.50933838     748.66265869     748.53619385     743.82775879
       734.00000000     718.70214844     710.00000000     706.04791260     710.21600342     706.82385254     702.00000000     688.00000000     702.00000000     703.81573486     712.82397461     723.45037842     742.00000000     745.82916260     758.83148193     756.91632080     754.99200439     762.00000000     758.34112549     738.13568115
       693.55053711     667.32763672     671.73767090     707.64904785
       635.00000000     620.00000000     620.75872803     620.00000000     620.61260986     630.41564941     655.64831543     684.39520264     720.22869873     712.00000000     709.02655029     728.39923096     718.41259766     722.59240723     748.84350586     778.06176758     762.83068848     759.82702637     761.93957520     760.37792969
       743.75268555     739.45275879     729.93389893     716.43157959     721.34747314     722.18176270     722.00000000     722.21289062     714.64666748     710.77441406     715.21374512     722.00000000     748.00000000     766.40747070     772.00000000     788.22674561     782.18530273     778.85223389     775.75927734     738.89892578
       697.13818359     682.76489258     668.13092041     683.08099365
       617.15228271     623.32110596     622.00000000     624.79431152     631.50756836     640.17352295     670.50811768     712.00000000     712.88287354     712.98016357     733.69635010     751.41912842     742.46545410     725.26269531     764.46319580     795.55426025     771.59564209     770.00000000     770.00000000     772.00000000
       755.15203857     751.58251953     742.26464844     740.73327637     741.88226318     731.10119629     718.39038086     721.50177002     727.22497559     727.15081787     738.66229248     744.00000000     752.95068359     767.15881348     778.86267090     801.45788574     804.61187744     801.77593994     780.25158691     749.59039307
       709.70361328     690.06097412     682.37927246     676.53240967
       622.16436768     626.00000000     628.16662598     629.64666748     638.00000000     648.15692139     670.09191895     700.69085693     704.00000000     725.20788574     752.63232422     752.00000000     749.92669678     741.00939941     765.36035156     789.59985352     787.96807861     782.81842041     779.23175049     775.75280762
       763.74645996     760.36224365     753.79125977     744.94287109     728.35589600     735.37353516     742.00000000     744.94238281     752.05560303     756.78729248     762.00000000     762.06066895     771.46490479     782.23608398     788.26715088     792.37023926     807.52563477     816.81799316     811.85968018     765.65191650
       716.43640137     698.91754150     695.25061035     697.24603271
       622.30700684     627.71618652     635.61541748     640.57623291     658.90179443     682.07135010     694.34240723     722.23724365     726.79437256     750.14331055     752.00000000     751.11437988     748.41320801     754.01831055     752.00000000     770.83673096     785.43408203     788.10333252     784.24969482     783.67022705
       774.38830566     774.00000000     761.02960205     746.83087158     743.07080078     732.00000000     750.60668945     760.47644043     761.78717041     766.66625977     769.69519043     774.00000000     779.32818604     785.70513916     796.95855713     795.54449463     807.29608154     825.51287842     815.46612549     777.21429443
       733.25457764     728.77575684     711.63232422     721.64385986
       625.49523926     640.05871582     637.92846680     672.00000000     679.65911865     713.83337402     730.38500977     722.98291016     752.00000000     746.30975342     745.04962158     746.84136963     745.96923828     754.01477051     765.93505859     784.03222656     789.55364990     790.52789307     789.20623779     786.21008301
       782.61273193     781.28540039     770.53912354     754.96441650     749.49523926     734.84112549     753.10253906     748.39666748     766.00000000     766.66772461     770.00000000     772.84588623     778.00000000     787.13043213     802.13153076     802.00000000     806.71337891     829.96948242     820.59722900     785.22644043
       765.30853271     755.87756348     726.40350342     739.13342285
       629.96899414     657.87689209     638.56262207     652.39160156     683.34301758     703.85424805     718.76403809     746.94036865     722.14031982     734.00000000     719.93713379     736.35705566     750.63092041     757.92962646     774.73291016     801.83972168     791.39624023     792.69573975     792.40423584     788.60980225
       784.07910156     783.77502441     783.00396729     765.45513916     767.17401123     746.26550293     744.46820068     769.71850586     769.88104248     776.60559082     777.64807129     778.00000000     790.13092041     797.30029297     806.17175293     804.69671631     812.02197266     834.39025879     834.90960693     799.80816650
       779.34100342     764.12579346     754.19152832     751.77935791
       635.96386719     651.05938721     657.62255859     645.06817627     670.30297852     688.49969482     722.00000000     729.04821777     702.38922119     700.00000000     733.87011719     749.15283203     767.19494629     773.92218018     789.07183838     815.44232178     803.00775146     795.74749756     803.03729248     795.89556885
       789.25524902     788.77313232     787.31103516     777.73693848     772.00000000     748.00000000     750.20672607     773.51953125     781.17285156     788.36364746     792.00000000     786.00000000     796.45245361     801.36260986     808.08966064     814.72833252     817.25439453     829.23962402     840.64056396     816.78869629
       796.46868896     762.31610107     774.81427002     777.00579834
       642.01751709     651.17517090     679.76306152     646.96411133     651.59497070     688.02862549     685.20892334     703.67761230     695.77441406     722.00000000     746.18286133     759.68005371     787.92736816     802.72576904     810.19799805     829.35839844     820.08959961     799.47070312     804.00000000     805.48358154
       800.88745117     797.52136230     791.01934814     785.45324707     784.00000000     750.97332764     760.31359863     778.18792725     786.01190186     790.54486084     790.00000000     790.69958496     794.72961426     802.46191406     809.18206787     816.32629395     822.71893311     829.74047852     850.00000000     827.34613037
       797.22674561     763.61840820     793.79693604     798.42059326
       662.33776855     659.18359375     678.12902832     674.61572266     655.89831543     664.00000000     668.00000000     680.00000000     710.71008301     726.85174561     750.00000000     776.74157715     804.85369873     828.59606934     835.30102539     844.99774170     830.16552734     808.89892578     807.28399658     807.64660645
       805.00659180     800.00000000     796.40338135     793.10247803     790.45947266     756.38000488     753.12005615     784.16033936     790.00000000     790.61236572     791.49877930     793.29064941     797.35589600     805.78210449     814.37689209     820.54711914     823.45684814     831.83996582     842.92602539     837.93017578
       803.27368164     775.58715820     812.08648682     828.99389648
       649.22491455     672.69256592     681.05010986     710.39215088     666.75769043     681.17553711     690.46282959     706.72216797     723.86193848     737.25939941     766.14349365     799.87969971     832.60888672     853.29132080     871.08325195     869.11132812     856.74871826     828.54211426     812.54827881     812.97662354
       819.07885742     819.06878662     804.56072998     800.48400879     786.71917725     776.02331543     783.64477539     769.50885010     789.40301514     790.77490234     797.28485107     804.36254883     810.44042969     815.46765137     822.82263184     825.16522217     827.71130371     837.30706787     858.90344238     845.19750977
       810.35076904     799.19042969     836.15258789     846.16333008
       654.16558838     681.10394287     707.38000488     736.15612793     703.55194092     682.43640137     683.25000000     688.26715088     731.86773682     746.38128662     748.00000000     782.46215820     835.65399170     886.47296143     893.28680420     893.80572510     889.11700439     851.85894775     829.29913330     826.88708496
       829.45697021     822.70251465     813.94824219     787.04852295     788.97399902     812.37646484     811.00561523     801.06695557     812.00000000     812.69415283     812.95330811     814.00811768     822.19610596     825.00677490     830.78686523     830.65020752     846.63812256     856.80676270     874.20104980     872.61914062
       850.13244629     824.71942139     870.08142090     871.24041748
       650.74591064     695.46850586     735.78161621     763.61968994     714.92016602     734.19726562     741.52105713     712.71575928     730.49096680     738.89440918     753.02429199     789.83703613     800.10308838     821.05932617     843.56433105     894.79370117     898.33770752     879.82550049     858.17669678     844.00000000
       838.68127441     828.44195557     822.00000000     822.16265869     824.18780518     824.95397949     823.38562012     819.36053467     816.34216309     819.38433838     823.68176270     829.61120605     834.28637695     835.42297363     837.79772949     844.00000000     856.85632324     872.33703613     889.64318848     910.66662598
       875.21246338     855.92840576     887.89929199     910.86621094
       658.60186768     676.00000000     703.04522705     741.31970215     761.58978271     761.72485352     771.63854980     740.65478516     714.07501221     750.70074463     779.06384277     784.69055176     782.78564453     824.28558350     880.51013184     900.00000000     902.00000000     902.51739502     878.03137207     857.84381104
       843.08685303     837.44445801     832.04687500     833.44012451     834.62457275     834.16522217     834.12091064     833.70764160     831.98602295     833.98040771     836.55389404     837.63305664     844.44598389     847.10290527     860.80102539     870.22491455     876.59185791     890.77185059     916.87164307     951.36706543
       927.63189697     896.00000000     935.53869629     953.39208984
       667.73284912     711.96734619     726.00000000     768.40747070     769.78985596     804.17510986     798.08300781     770.89044189     771.10656738     760.04809570     747.73968506     790.86657715     838.00000000     841.02117920     863.75311279     908.26202393     911.65673828     914.56945801     907.65948486     895.01025391
       880.36254883     860.30377197     862.43487549     861.86499023     859.99700928     861.31781006     857.53125000     864.73394775     866.48248291     863.51654053     864.56555176     868.46325684     875.22674561     880.35180664     892.01635742     905.72283936     918.11505127     935.79736328     957.94921875     973.34832764
       970.88415527     947.53015137     976.62890625     981.26110840
       686.53863525     713.66534424     740.60504150     746.47717285     738.28363037     780.75073242     815.29675293     816.76135254     811.57360840     788.11584473     791.45788574     769.99688721     794.29290771     840.00000000     858.09991455     900.28710938     916.08325195     919.16485596     922.17614746     926.00000000
       916.92590332     915.40093994     907.47369385     905.79229736     904.84265137     903.14422607     901.93225098     899.00360107     902.51788330     912.58471680     911.78369141     923.53015137     930.17462158     923.51507568     930.66503906     943.51208496     963.26806641     972.63128662     975.53265381     979.45568848
       984.06658936     987.17633057     992.43212891     994.89660645
       664.07342529     679.85943604     696.64624023     700.74554443     737.31628418     750.79803467     783.03015137     769.39764404     795.05303955     843.96661377     829.10144043     821.29412842     814.94488525     817.41632080     828.69287109     879.23547363     918.00000000     921.72778320     926.00000000     928.43072510
       932.40313721     936.53326416     940.00000000     943.10375977     945.79632568     947.79986572     950.57568359     952.38500977     953.88574219     957.08740234     958.79327393     961.22882080     962.82171631     966.25048828     968.29522705     970.92205811     973.32714844     976.00000000     979.14453125     983.48217773
       988.23516846     992.01489258     996.64410400     997.83959961
       704.82470703     691.24133301     680.21520996     680.20196533     690.93310547     731.72686768     723.69152832     788.50299072     814.98919678     798.33984375     816.67089844     837.56573486     872.00372314     884.16687012     850.90447998     865.59875488     915.86883545     923.48126221     927.46704102     930.73571777
       933.93835449     939.03143311     942.89483643     947.32873535     950.32562256     953.02203369     956.00000000     958.47723389     960.07373047     962.55999756     964.83050537     966.49877930     968.74554443     971.03875732     972.97821045     975.07012939     977.25469971     979.03594971     982.82720947     985.83135986
       990.50793457     995.20532227    1000.20672607    1003.99420166
  botm  LAYERED
    INTERNAL  FACTOR  1.0
         693.00000000     612.00000000     609.00000000     609.00000000     618.00000000     613.00000000     620.00000000     619.00000000     675.00000000     657.00000000     637.00000000     641.00000000     644.00000000     653.00000000     662.00000000     705.00000000     729.00000000     769.00000000     780.00000000     784.00000000
         783.00000000     767.00000000     766.00000000     765.00000000     771.00000000     768.00000000     762.00000000     760.00000000     771.00000000     786.00000000     792.00000000     794.00000000     808.00000000     815.00000000     823.00000000     823.00000000     827.00000000     835.00000000     849.00000000     861.00000000
         832.00000000     810.00000000     829.00000000     873.00000000
         706.00000000     648.00000000     617.00000000     620.00000000     624.00000000     647.00000000     656.00000000     625.00000000     625.00000000     624.00000000     622.00000000     635.00000000     632.00000000     636.00000000     669.00000000     716.00000000     755.00000000     752.00000000     764.00000000     775.00000000
         767.00000000     760.00000000     745.00000000     749.00000000     754.00000000     752.00000000     743.00000000     746.00000000     754.00000000     776.00000000     780.00000000     784.00000000     801.00000000     810.00000000     821.00000000     838.00000000     846.00000000     856.00000000     857.00000000     857.00000000
         854.00000000     811.00000000     820.00000000     866.00000000