# File generated by Flopy version 3.3.4 on 11/21/2021 at 20:34:01.
BEGIN options
  COMPLEXITY  complex
END options

