# File generated by Flopy version 3.3.4 on 06/25/2022 at 19:42:26.
BEGIN options
  BOUNDNAMES
  PRINT_FLOWS
  SAVE_FLOWS
  OBS6  FILEIN  modelo_Norte_gal_w.drn.obs
END options

BEGIN dimensions
  MAXBOUND  13
END dimensions

BEGIN period  1225
END period  1225

BEGIN period  1236
  1 56 113     774.01128993  7.50205104E-06  gal_w_flow
END period  1236

BEGIN period  1250
  1 56 113     774.01128993  7.50205104E-06  gal_w_flow
  1 52 146     774.06278862  7.50205104E-06  gal_w_flow
END period  1250

BEGIN period  1265
  1 56 113     774.01128993  7.50205104E-06  gal_w_flow
  1 52 146     774.06278862  7.50205104E-06  gal_w_flow
  1 48 178     779.96878520  7.50205104E-06  gal_w_flow
END period  1265

BEGIN period  1282
  1 56 113     774.01128993  7.50205104E-06  gal_w_flow
  1 52 146     774.06278862  7.50205104E-06  gal_w_flow
  1 48 178     779.96878520  7.50205104E-06  gal_w_flow
  1 45 199     788.06260430  7.50205104E-06  gal_w_flow
  2 45 199     761.75472227  7.50205104E-06  gal_w_flow
END period  1282

BEGIN period  1300
  1 56 113     774.01128993  7.50205104E-06  gal_w_flow
  1 52 146     774.06278862  7.50205104E-06  gal_w_flow
  1 48 178     779.96878520  7.50205104E-06  gal_w_flow
  1 45 199     788.06260430  7.50205104E-06  gal_w_flow
  2 45 199     761.75472227  7.50205104E-06  gal_w_flow
  1 43 213     792.80867815  7.50205104E-06  gal_w_flow
  2 43 213     769.35618838  7.50205104E-06  gal_w_flow
END period  1300

BEGIN period  1320
  1 56 113     774.01128993  7.50205104E-06  gal_w_flow
  1 52 146     774.06278862  7.50205104E-06  gal_w_flow
  1 48 178     779.96878520  7.50205104E-06  gal_w_flow
  1 45 199     788.06260430  7.50205104E-06  gal_w_flow
  2 45 199     761.75472227  7.50205104E-06  gal_w_flow
  1 43 213     792.80867815  7.50205104E-06  gal_w_flow
  2 43 213     769.35618838  7.50205104E-06  gal_w_flow
  1 41 226     797.32373920  7.50205104E-06  gal_w_flow
  2 41 226     789.49781281  7.50205104E-06  gal_w_flow
  3 41 226     781.67188641  7.50205104E-06  gal_w_flow
END period  1320

BEGIN period  1341
  1 56 113     774.01128993  7.50205104E-06  gal_w_flow
  1 52 146     774.06278862  7.50205104E-06  gal_w_flow
  1 48 178     779.96878520  7.50205104E-06  gal_w_flow
  1 45 199     788.06260430  7.50205104E-06  gal_w_flow
  2 45 199     761.75472227  7.50205104E-06  gal_w_flow
  1 43 213     792.80867815  7.50205104E-06  gal_w_flow
  2 43 213     769.35618838  7.50205104E-06  gal_w_flow
  1 41 226     797.32373920  7.50205104E-06  gal_w_flow
  2 41 226     789.49781281  7.50205104E-06  gal_w_flow
  3 41 226     781.67188641  7.50205104E-06  gal_w_flow
  1 38 250     816.10150178  7.50205104E-06  gal_w_flow
  2 38 250     799.96283959  7.50205104E-06  gal_w_flow
  3 38 250     783.82417740  7.50205104E-06  gal_w_flow
END period  1341

