# File generated by Flopy version 3.3.2 on 05/28/2021 at 22:47:30.
BEGIN options
  COMPLEXITY  simple
END options

