# File generated by Flopy version 3.3.2 on 08/26/2021 at 07:19:30.
BEGIN options
  COMPLEXITY  complex
END options

