# File generated by Flopy version 3.3.4 on 11/28/2021 at 15:02:43.
BEGIN options
  XORIGIN  1.10238512E+06
  YORIGIN  1.28136222E+06
END options

BEGIN dimensions
  NLAY  6
  NROW  102
  NCOL  270
END dimensions

BEGIN griddata
  delr
    INTERNAL  FACTOR  1.0
        80.00000000      80.00000000      80.00000000      80.00000000      80.00000000      80.00000000      80.00000000      80.00000000      80.00000000      80.00000000      80.00000000      80.00000000      80.00000000      80.00000000      80.00000000      80.00000000      80.00000000      80.00000000      80.00000000      80.00000000      80.00000000      80.00000000      80.00000000      80.00000000      80.00000000      80.00000000      80.00000000      76.88671875      51.25781250      34.17187500      22.78125000      15.18750000      10.12500000       6.75000000       4.50000000       3.00000000       3.00000000       3.00000000       3.00000000       3.00000000       3.00000000       3.00000000       3.00000000       3.00000000       3.00000000       3.00000000       3.00000000       3.00000000       3.00000000       3.00000000       3.00000000       3.00000000       3.00000000       3.00000000       3.00000000       3.00000000       3.00000000       3.00000000       3.00000000       3.00000000       3.00000000       3.00000000       3.00000000       3.00000000       3.00000000       3.00000000       3.00000000       3.00000000       3.00000000       3.00000000       3.00000000       3.00000000       3.00000000       3.00000000       3.00000000       3.00000000       3.00000000       3.00000000       3.00000000       3.00000000       3.00000000       3.00000000       3.00000000       3.00000000       3.00000000       3.00000000       3.00000000       3.00000000       3.00000000       3.00000000       3.00000000       3.00000000       3.00000000       3.00000000       3.00000000       3.00000000       3.00000000       3.00000000       3.00000000       3.00000000       3.00000000       3.00000000       3.00000000       3.00000000       3.00000000       3.00000000       3.00000000       3.00000000       3.00000000       3.00000000       3.00000000       3.00000000       3.00000000       3.00000000       3.00000000       3.00000000       3.00000000       3.00000000       3.00000000       3.00000000       3.00000000       3.00000000       3.00000000       3.00000000       3.00000000       3.00000000       3.00000000       3.00000000       3.00000000       3.00000000       3.00000000       3.00000000       3.00000000       3.00000000       3.00000000       3.00000000       3.00000000       3.00000000       3.00000000       3.00000000       3.00000000       3.00000000       3.00000000       3.00000000       3.00000000       3.00000000       3.00000000       3.00000000       3.00000000       3.00000000       3.00000000       3.00000000       3.00000000       3.00000000       3.00000000       3.00000000       3.00000000       3.00000000       3.00000000       3.00000000       3.00000000       3.00000000       3.00000000       3.00000000       3.00000000       3.00000000       3.00000000       3.00000000       3.00000000       3.00000000       3.00000000       3.00000000       3.00000000       3.00000000       3.00000000       3.00000000       3.00000000       3.00000000       3.00000000       3.00000000       3.00000000       3.00000000       3.00000000       3.00000000       3.00000000       3.00000000       3.00000000       3.00000000       3.00000000       3.00000000       3.00000000       3.00000000       3.00000000       3.00000000       3.00000000       3.00000000       3.00000000       3.00000000       3.00000000       3.00000000       3.00000000       3.00000000       3.00000000       3.00000000       3.00000000       3.00000000       3.00000000       3.00000000       3.00000000       3.00000000       3.00000000       3.00000000       3.00000000       3.00000000       3.00000000       3.00000000       3.00000000       3.00000000       3.00000000       3.00000000       3.00000000       3.00000000       3.00000000       3.00000000       3.00000000       3.00000000       3.00000000       3.00000000       3.00000000       3.00000000       3.00000000       3.00000000       3.00000000       3.00000000       3.00000000       3.00000000       3.00000000       3.00000000       3.00000000       3.00000000       3.00000000       3.00000000       3.00000000       3.00000000       3.00000000       3.00000000       3.00000000       3.00000000       3.00000000       3.00000000       3.00000000       3.00000000       3.00000000       3.00000000       3.00000000       3.00000000       3.00000000       4.50000000       6.75000000      10.12500000      15.18750000      22.78125000      34.17187500      51.25781250      76.88671875      80.00000000      80.00000000      80.00000000      80.00000000      80.00000000
  delc
    INTERNAL  FACTOR  1.0
        80.00000000      80.00000000      80.00000000      80.00000000      80.00000000      80.00000000      80.00000000      80.00000000      80.00000000      80.00000000      80.00000000      80.00000000      80.00000000      80.00000000      80.00000000      80.00000000      80.00000000      80.00000000      80.00000000      80.00000000      80.00000000      80.00000000      80.00000000      80.00000000      76.88671875      51.25781250      34.17187500      22.78125000      15.18750000      10.12500000       6.75000000       4.50000000       3.00000000       3.00000000       3.00000000       3.00000000       3.00000000       3.00000000       3.00000000       3.00000000       3.00000000       3.00000000       3.00000000       3.00000000       3.00000000       3.00000000       3.00000000       3.00000000       3.00000000       3.00000000       3.00000000       3.00000000       3.00000000       3.00000000       3.00000000       3.00000000       3.00000000       3.00000000       3.00000000       3.00000000       3.00000000       3.00000000       3.00000000       3.00000000       3.00000000       3.00000000       3.00000000       3.00000000       3.00000000       3.00000000       3.00000000       3.00000000       3.00000000       3.00000000       3.00000000       3.00000000       3.00000000       3.00000000       3.00000000       3.00000000       3.00000000       3.00000000       3.00000000       3.00000000       3.00000000       3.00000000       3.00000000       4.50000000       6.75000000      10.12500000      15.18750000      22.78125000      34.17187500      51.25781250      76.88671875      80.00000000      80.00000000      80.00000000      80.00000000      80.00000000      80.00000000      80.00000000
  top
    INTERNAL  FACTOR  1.0
       701.00000000     635.00000000     613.00000000     611.00000000     611.00000000     610.00000000     612.00000000     623.00000000     633.00000000     624.00000000     643.00000000     636.00000000     626.00000000     631.00000000     634.00000000     638.00000000     648.00000000     647.00000000     690.00000000     712.00000000     742.00000000     767.00000000     769.00000000     776.00000000     785.00000000     778.00000000     768.00000000     757.00000000     760.00000000     760.00000000     760.00000000     761.00000000     761.00000000     761.00000000     762.00000000     762.00000000     762.00000000     762.00000000     762.00000000     762.00000000     762.00000000     762.00000000     762.00000000     762.00000000     762.00000000     762.00000000     762.00000000     761.00000000     761.00000000     761.00000000     761.00000000     760.00000000     760.00000000     760.00000000     760.00000000     759.00000000     759.00000000     759.00000000     759.00000000     758.00000000     758.00000000     758.00000000     758.00000000     756.00000000     756.00000000     756.00000000     756.00000000     756.00000000     754.00000000     754.00000000     754.00000000     754.00000000     753.00000000     753.00000000     753.00000000     753.00000000     752.00000000     752.00000000     752.00000000     752.00000000     752.00000000     752.00000000     752.00000000     752.00000000     753.00000000     753.00000000     753.00000000     753.00000000     754.00000000     754.00000000     754.00000000     754.00000000     754.00000000     755.00000000     755.00000000     755.00000000     755.00000000     757.00000000     757.00000000     757.00000000     757.00000000     760.00000000     760.00000000     760.00000000     760.00000000     764.00000000     764.00000000     764.00000000     764.00000000     769.00000000     769.00000000     769.00000000     769.00000000     774.00000000     774.00000000     774.00000000     774.00000000     774.00000000     779.00000000     779.00000000     779.00000000     779.00000000     783.00000000     783.00000000     783.00000000     783.00000000     786.00000000     786.00000000     786.00000000     786.00000000     788.00000000     788.00000000     788.00000000     788.00000000     789.00000000     789.00000000     789.00000000     789.00000000     790.00000000     790.00000000     790.00000000     790.00000000     790.00000000     790.00000000     790.00000000     790.00000000     790.00000000     790.00000000     790.00000000     790.00000000     790.00000000     792.00000000     792.00000000     792.00000000     792.00000000     794.00000000     794.00000000     794.00000000     794.00000000     797.00000000     797.00000000     797.00000000     797.00000000     802.00000000     802.00000000     802.00000000     802.00000000     802.00000000     806.00000000     806.00000000     806.00000000     806.00000000     809.00000000     809.00000000     809.00000000     809.00000000     812.00000000     812.00000000     812.00000000     812.00000000     815.00000000     815.00000000     815.00000000     815.00000000     817.00000000     817.00000000     817.00000000     817.00000000     820.00000000     820.00000000     820.00000000     820.00000000     820.00000000     822.00000000     822.00000000     822.00000000     822.00000000     825.00000000     825.00000000     825.00000000     825.00000000     826.00000000     826.00000000     826.00000000     826.00000000     827.00000000     827.00000000     827.00000000     827.00000000     828.00000000     828.00000000     828.00000000     828.00000000     827.00000000     827.00000000     827.00000000     827.00000000     827.00000000     827.00000000     827.00000000     827.00000000     827.00000000     829.00000000     829.00000000     829.00000000     829.00000000     831.00000000     831.00000000     831.00000000     831.00000000     833.00000000     833.00000000     833.00000000     833.00000000     835.00000000     835.00000000     835.00000000     835.00000000     837.00000000     837.00000000     837.00000000     837.00000000     837.00000000     839.00000000     839.00000000     839.00000000     839.00000000     841.00000000     841.00000000     841.00000000     841.00000000     842.00000000     842.00000000     842.00000000     842.00000000     844.00000000     844.00000000     844.00000000     847.00000000     847.00000000     850.00000000     856.00000000     860.00000000     861.00000000     866.00000000     842.00000000     809.00000000     819.00000000     840.00000000     886.00000000
       736.00000000     688.00000000     650.00000000     633.00000000     646.00000000     653.00000000     672.00000000     682.00000000     643.00000000     622.00000000     621.00000000     624.00000000     622.00000000     623.00000000     636.00000000     631.00000000     629.00000000     640.00000000     674.00000000     725.00000000     746.00000000     745.00000000     750.00000000     765.00000000     764.00000000     762.00000000     761.00000000     746.00000000     742.00000000     742.00000000     744.00000000     745.00000000     746.00000000     748.00000000     749.00000000     749.00000000     749.00000000     749.00000000     750.00000000     750.00000000     750.00000000     750.00000000     750.00000000     751.00000000     751.00000000     751.00000000     751.00000000     752.00000000     752.00000000     752.00000000     752.00000000     751.00000000     751.00000000     751.00000000     751.00000000     750.00000000     750.00000000     750.00000000     750.00000000     749.00000000     749.00000000     749.00000000     749.00000000     746.00000000     746.00000000     746.00000000     746.00000000     746.00000000     743.00000000     743.00000000     743.00000000     743.00000000     741.00000000     741.00000000     741.00000000     741.00000000     740.00000000     740.00000000     740.00000000     740.00000000     740.00000000     740.00000000     740.00000000     740.00000000     741.00000000     741.00000000     741.00000000     741.00000000     743.00000000     743.00000000     743.00000000     743.00000000     743.00000000     746.00000000     746.00000000     746.00000000     746.00000000     749.00000000     749.00000000     749.00000000     749.00000000     754.00000000     754.00000000     754.00000000     754.00000000     759.00000000     759.00000000     759.00000000     759.00000000     764.00000000     764.00000000     764.00000000     764.00000000     767.00000000     767.00000000     767.00000000     767.00000000     767.00000000     770.00000000     770.00000000     770.00000000     770.00000000     771.00000000     771.00000000     771.00000000     771.00000000     771.00000000     771.00000000     771.00000000     771.00000000     771.00000000     771.00000000     771.00000000     771.00000000     772.00000000     772.00000000     772.00000000     772.00000000     773.00000000     773.00000000     773.00000000     773.00000000     773.00000000     774.00000000     774.00000000     774.00000000     774.00000000     777.00000000     777.00000000     777.00000000     777.00000000     778.00000000     778.00000000     778.00000000     778.00000000     780.00000000     780.00000000     780.00000000     780.00000000     783.00000000     783.00000000     783.00000000     783.00000000     787.00000000     787.00000000     787.00000000     787.00000000     787.00000000     791.00000000     791.00000000     791.00000000     791.00000000     794.00000000     794.00000000     794.00000000     794.00000000     797.00000000     797.00000000     797.00000000     797.00000000     800.00000000     800.00000000     800.00000000     800.00000000     801.00000000     801.00000000     801.00000000     801.00000000     803.00000000     803.00000000     803.00000000     803.00000000     803.00000000     807.00000000     807.00000000     807.00000000     807.00000000     811.00000000     811.00000000     811.00000000     811.00000000     816.00000000     816.00000000     816.00000000     816.00000000     822.00000000     822.00000000     822.00000000     822.00000000     828.00000000     828.00000000     828.00000000     828.00000000     833.00000000     833.00000000     833.00000000     833.00000000     833.00000000     837.00000000     837.00000000     837.00000000     837.00000000     841.00000000     841.00000000     841.00000000     841.00000000     843.00000000     843.00000000     843.00000000     843.00000000     846.00000000     846.00000000     846.00000000     846.00000000     848.00000000     848.00000000     848.00000000     848.00000000     850.00000000     850.00000000     850.00000000     850.00000000     850.00000000     852.00000000     852.00000000     852.00000000     852.00000000     854.00000000     854.00000000     854.00000000     854.00000000     855.00000000     855.00000000     855.00000000     855.00000000     856.00000000     856.00000000     856.00000000     857.00000000     857.00000000     858.00000000     857.00000000     855.00000000     849.00000000     849.00000000     848.00000000     815.00000000     817.00000000     836.00000000     889.00000000
       777.00000000     713.00000000     694.00000000     694.00000000     695.00000000     712.00000000     705.00000000     677.00000000     640.00000000     628.00000000     608.00000000     609.97656250     610.45965576     610.82751465     612.00000000     612.00000000     614.00000000     616.00000000     617.06634521     663.70355225     697.59118652     702.73620605     732.88708496     755.86462402     742.93457031     744.58129883     740.00000000     732.21710205     723.51745605     724.00000000     727.08453369     730.05291748     730.59423828     731.10925293     731.83782959     731.83782959     731.83782959     731.83782959     732.14111328     732.14111328     732.14111328     732.14111328     732.14111328     733.13409424     733.13409424     733.13409424     733.13409424     736.20819092     736.20819092     736.20819092     736.20819092     740.00000000     740.00000000     740.00000000     740.00000000     738.61169434     738.61169434     738.61169434     738.61169434     736.60260010     736.60260010     736.60260010     736.60260010     734.88629150     734.88629150     734.88629150     734.88629150     734.88629150     731.39550781     731.39550781     731.39550781     731.39550781     728.87402344     728.87402344     728.87402344     728.87402344     726.69573975     726.69573975     726.69573975     726.69573975     723.86309814     723.86309814     723.86309814     723.86309814     712.90991211     712.90991211     712.90991211     712.90991211     710.00000000     710.00000000     710.00000000     710.00000000     710.00000000     710.00000000     710.00000000     710.00000000     710.00000000     711.21044922     711.21044922     711.21044922     711.21044922     719.42694092     719.42694092     719.42694092     719.42694092     719.62915039     719.62915039     719.62915039     719.62915039     719.46051025     719.46051025     719.46051025     719.46051025     718.83923340     718.83923340     718.83923340     718.83923340     718.83923340     718.80456543     718.80456543     718.80456543     718.80456543     729.96350098     729.96350098     729.96350098     729.96350098     735.04211426     735.04211426     735.04211426     735.04211426     741.02044678     741.02044678     741.02044678     741.02044678     748.35937500     748.35937500     748.35937500     748.35937500     763.66992188     763.66992188     763.66992188     763.66992188     763.66992188     769.63220215     769.63220215     769.63220215     769.63220215     772.02325439     772.02325439     772.02325439     772.02325439     773.18542480     773.18542480     773.18542480     773.18542480     779.26129150     779.26129150     779.26129150     779.26129150     778.22381592     778.22381592     778.22381592     778.22381592     776.75213623     776.75213623     776.75213623     776.75213623     776.75213623     775.68395996     775.68395996     775.68395996     775.68395996     779.76373291     779.76373291     779.76373291     779.76373291     783.25408936     783.25408936     783.25408936     783.25408936     786.94659424     786.94659424     786.94659424     786.94659424     790.04211426     790.04211426     790.04211426     790.04211426     795.75592041     795.75592041     795.75592041     795.75592041     795.75592041     799.41168213     799.41168213     799.41168213     799.41168213     804.72753906     804.72753906     804.72753906     804.72753906     808.45684814     808.45684814     808.45684814     808.45684814     816.28460693     816.28460693     816.28460693     816.28460693     820.38519287     820.38519287     820.38519287     820.38519287     824.42272949     824.42272949     824.42272949     824.42272949     824.42272949     829.01824951     829.01824951     829.01824951     829.01824951     835.75122070     835.75122070     835.75122070     835.75122070     839.10461426     839.10461426     839.10461426     839.10461426     843.09332275     843.09332275     843.09332275     843.09332275     849.31475830     849.31475830     849.31475830     849.31475830     851.89459229     851.89459229     851.89459229     851.89459229     851.89459229     853.78570557     853.78570557     853.78570557     853.78570557     855.30291748     855.30291748     855.30291748     855.30291748     856.00000000     856.00000000     856.00000000     856.00000000     854.64129639     854.64129639     854.64129639     852.46142578     852.46142578     849.57464600     838.86853027     829.43927002     820.35070801     829.44635010     836.00000000     798.00000000     815.00000000     837.00000000     867.00000000
       809.00000000     734.00000000     728.00000000     731.00000000     720.00000000     714.00000000     699.00000000     667.00000000     623.00000000     613.79974365     624.00000000     612.39758301     610.43212891     613.39251709     616.13336182     617.81622314     624.62707520     626.29327393     624.43609619     633.03906250     662.58825684     721.42254639     745.20111084     754.94549561     731.99523926     724.40142822     724.00000000     724.19891357     711.96722412     717.96002197     724.00000000     724.92120361     725.50701904     725.46972656     725.39526367     725.39526367     725.39526367     725.39526367     725.25762939     725.25762939     725.25762939     725.25762939     725.25762939     725.66168213     725.66168213     725.66168213     725.66168213     728.09051514     728.09051514     728.09051514     728.09051514     729.32110596     729.32110596     729.32110596     729.32110596     727.74304199     727.74304199     727.74304199     727.74304199     727.26849365     727.26849365     727.26849365     727.26849365     727.96075439     727.96075439     727.96075439     727.96075439     727.96075439     730.23254395     730.23254395     730.23254395     730.23254395     730.25567627     730.25567627     730.25567627     730.25567627     728.66418457     728.66418457     728.66418457     728.66418457     723.24157715     723.24157715     723.24157715     723.24157715     712.71984863     712.71984863     712.71984863     712.71984863     707.01611328     707.01611328     707.01611328     707.01611328     707.01611328     703.90142822     703.90142822     703.90142822     703.90142822     702.00000000     702.00000000     702.00000000     702.00000000     707.97064209     707.97064209     707.97064209     707.97064209     715.23266602     715.23266602     715.23266602     715.23266602     720.79235840     720.79235840     720.79235840     720.79235840     726.30517578     726.30517578     726.30517578     726.30517578     726.30517578     730.68054199     730.68054199     730.68054199     730.68054199     735.29187012     735.29187012     735.29187012     735.29187012     736.29876709     736.29876709     736.29876709     736.29876709     738.33843994     738.33843994     738.33843994     738.33843994     739.92834473     739.92834473     739.92834473     739.92834473     752.39862061     752.39862061     752.39862061     752.39862061     752.39862061     758.53613281     758.53613281     758.53613281     758.53613281     764.18902588     764.18902588     764.18902588     764.18902588     765.52087402     765.52087402     765.52087402     765.52087402     767.10540771     767.10540771     767.10540771     767.10540771     768.00000000     768.00000000     768.00000000     768.00000000     768.00000000     768.00000000     768.00000000     768.00000000     768.00000000     768.00000000     768.00000000     768.00000000     768.00000000     774.17187500     774.17187500     774.17187500     774.17187500     778.19976807     778.19976807     778.19976807     778.19976807     786.56726074     786.56726074     786.56726074     786.56726074     789.73480225     789.73480225     789.73480225     789.73480225     796.97192383     796.97192383     796.97192383     796.97192383     796.97192383     801.16925049     801.16925049     801.16925049     801.16925049     805.04479980     805.04479980     805.04479980     805.04479980     808.17431641     808.17431641     808.17431641     808.17431641     818.49890137     818.49890137     818.49890137     818.49890137     823.47753906     823.47753906     823.47753906     823.47753906     828.59588623     828.59588623     828.59588623     828.59588623     828.59588623     832.67974854     832.67974854     832.67974854     832.67974854     841.01586914     841.01586914     841.01586914     841.01586914     844.12451172     844.12451172     844.12451172     844.12451172     845.53961182     845.53961182     845.53961182     845.53961182     846.63397217     846.63397217     846.63397217     846.63397217     847.34307861     847.34307861     847.34307861     847.34307861     847.34307861     847.06677246     847.06677246     847.06677246     847.06677246     846.13519287     846.13519287     846.13519287     846.13519287     844.23284912     844.23284912     844.23284912     844.23284912     840.34967041     840.34967041     840.34967041     838.22515869     838.22515869     836.95770264     827.29516602     821.10418701     810.33178711     814.32330322     814.00000000     786.00000000     809.00000000     829.00000000     858.00000000
       797.00000000     780.00000000     760.00000000     746.00000000     718.00000000     691.00000000     670.00000000     637.00000000     619.00000000     608.00000000     612.66076660     622.00000000     616.00000000     616.45861816     617.15008545     624.01318359     634.14532471     642.37805176     625.89556885     621.78814697     683.81109619     735.11175537     745.19531250     735.54296875     715.15386963     705.97485352     706.79364014     707.50671387     701.54370117     710.43188477     714.00000000     714.00000000     714.12213135     714.49133301     711.82348633     711.82348633     711.82348633     711.82348633     714.98724365     714.98724365     714.98724365     714.98724365     714.98724365     717.34478760     717.34478760     717.34478760     717.34478760     718.64074707     718.64074707     718.64074707     718.64074707     707.08007812     707.08007812     707.08007812     707.08007812     704.82928467     704.82928467     704.82928467     704.82928467     704.00000000     704.00000000     704.00000000     704.00000000     704.50592041     704.50592041     704.50592041     704.50592041     704.50592041     704.77709961     704.77709961     704.77709961     704.77709961     707.14965820     707.14965820     707.14965820     707.14965820     707.14978027     707.14978027     707.14978027     707.14978027     706.31799316     706.31799316     706.31799316     706.31799316     702.81805420     702.81805420     702.81805420     702.81805420     699.42712402     699.42712402     699.42712402     699.42712402     699.42712402     698.00000000     698.00000000     698.00000000     698.00000000     698.69201660     698.69201660     698.69201660     698.69201660     705.18682861     705.18682861     705.18682861     705.18682861     706.99481201     706.99481201     706.99481201     706.99481201     711.79187012     711.79187012     711.79187012     711.79187012     723.78698730     723.78698730     723.78698730     723.78698730     723.78698730     731.19201660     731.19201660     731.19201660     731.19201660     738.35614014     738.35614014     738.35614014     738.35614014     739.49023438     739.49023438     739.49023438     739.49023438     741.78710938     741.78710938     741.78710938     741.78710938     744.52539062     744.52539062     744.52539062     744.52539062     750.04229736     750.04229736     750.04229736     750.04229736     750.04229736     755.15197754     755.15197754     755.15197754     755.15197754     760.00000000     760.00000000     760.00000000     760.00000000     760.00000000     760.00000000     760.00000000     760.00000000     768.06286621     768.06286621     768.06286621     768.06286621     770.96746826     770.96746826     770.96746826     770.96746826     773.79650879     773.79650879     773.79650879     773.79650879     773.79650879     776.66284180     776.66284180     776.66284180     776.66284180     783.09820557     783.09820557     783.09820557     783.09820557     786.06756592     786.06756592     786.06756592     786.06756592     788.40979004     788.40979004     788.40979004     788.40979004     791.05877686     791.05877686     791.05877686     791.05877686     796.95147705     796.95147705     796.95147705     796.95147705     796.95147705     800.69183350     800.69183350     800.69183350     800.69183350     805.28405762     805.28405762     805.28405762     805.28405762     810.37731934     810.37731934     810.37731934     810.37731934     818.47979736     818.47979736     818.47979736     818.47979736     821.97485352     821.97485352     821.97485352     821.97485352     823.81115723     823.81115723     823.81115723     823.81115723     823.81115723     826.63763428     826.63763428     826.63763428     826.63763428     831.11401367     831.11401367     831.11401367     831.11401367     830.94689941     830.94689941     830.94689941     830.94689941     830.92791748     830.92791748     830.92791748     830.92791748     831.03070068     831.03070068     831.03070068     831.03070068     829.72601318     829.72601318     829.72601318     829.72601318     829.72601318     826.54711914     826.54711914     826.54711914     826.54711914     824.78698730     824.78698730     824.78698730     824.78698730     822.12011719     822.12011719     822.12011719     822.12011719     817.02239990     817.02239990     817.02239990     814.79150391     814.79150391     812.66278076     807.10791016     804.00000000     790.85321045     807.74389648     784.00000000     783.00000000     822.00000000     833.00000000     848.00000000