# File generated by Flopy version 3.3.2 on 05/28/2021 at 22:47:30.
BEGIN options
END options

BEGIN packages
  DIS6  modelo_Norte.dis  dis
  RCH6  modelo_Norte.rch  rch
  DRN6  modelo_Norte.drn  drn
  CHD6  modelo_Norte.chd  chd
  IC6  modelo_Norte.ic  ic
  NPF6  modelo_Norte.npf  npf
  OC6  modelo_Norte.oc  oc
END packages

