# File generated by Flopy version 3.3.4 on 11/27/2021 at 21:53:52.
BEGIN options
END options

BEGIN continuous  FILEOUT  mod_drn_gal_obs.csv
  gal-flow  drn  gal_flow
END continuous  FILEOUT  mod_drn_gal_obs.csv

