# File generated by Flopy version 3.3.4 on 11/28/2021 at 15:02:43.
BEGIN options
  TIME_UNITS  seconds
END options

BEGIN dimensions
  NPER  1642
END dimensions

BEGIN perioddata
       1.00000000  1       1.00000000
   86400.00000000  1       1.00000000
   86400.00000000  1       1.00000000
   86400.00000000  1       1.00000000
   86400.00000000  1       1.00000000
   86400.00000000  1       1.00000000
   86400.00000000  1       1.00000000
   86400.00000000  1       1.00000000
   86400.00000000  1       1.00000000
   86400.00000000  1       1.00000000
   86400.00000000  1       1.00000000
   86400.00000000  1       1.00000000
   86400.00000000  1       1.00000000
   86400.00000000  1       1.00000000
   86400.00000000  1       1.00000000
   86400.00000000  1       1.00000000
   86400.00000000  1       1.00000000
   86400.00000000  1       1.00000000
   86400.00000000  1       1.00000000
   86400.00000000  1       1.00000000
   86400.00000000  1       1.00000000
   86400.00000000  1       1.00000000
   86400.00000000  1       1.00000000
   86400.00000000  1       1.00000000
   86400.00000000  1       1.00000000
   86400.00000000  1       1.00000000
   86400.00000000  1       1.00000000
   86400.00000000  1       1.00000000
   86400.00000000  1       1.00000000
   86400.00000000  1       1.00000000
   86400.00000000  1       1.00000000
   86400.00000000  1       1.00000000
   86400.00000000  1       1.00000000
   86400.00000000  1       1.00000000
   86400.00000000  1       1.00000000
   86400.00000000  1       1.00000000
   86400.00000000  1       1.00000000
   86400.00000000  1       1.00000000
   86400.00000000  1       1.00000000
   86400.00000000  1       1.00000000
   86400.00000000  1       1.00000000
   86400.00000000  1       1.00000000
   86400.00000000  1       1.00000000
   86400.00000000  1       1.00000000
   86400.00000000  1       1.00000000
   86400.00000000  1       1.00000000
   86400.00000000  1       1.00000000
   86400.00000000  1       1.00000000
   86400.00000000  1       1.00000000
   86400.00000000  1       1.00000000
   86400.00000000  1       1.00000000
   86400.00000000  1       1.00000000
   86400.00000000  1       1.00000000
   86400.00000000  1       1.00000000
   86400.00000000  1       1.00000000
   86400.00000000  1       1.00000000
   86400.00000000  1       1.00000000
   86400.00000000  1       1.00000000
   86400.00000000  1       1.00000000
   86400.00000000  1       1.00000000
   86400.00000000  1       1.00000000
   86400.00000000  1       1.00000000
   86400.00000000  1       1.00000000
   86400.00000000  1       1.00000000
   86400.00000000  1       1.00000000
   86400.00000000  1       1.00000000
   86400.00000000  1       1.00000000
   86400.00000000  1       1.00000000
   86400.00000000  1       1.00000000
   86400.00000000  1       1.00000000
   86400.00000000  1       1.00000000
   86400.00000000  1       1.00000000
   86400.00000000  1       1.00000000
   86400.00000000  1       1.00000000
   86400.00000000  1       1.00000000
   86400.00000000  1       1.00000000
   86400.00000000  1       1.00000000
   86400.00000000  1       1.00000000
   86400.00000000  1       1.00000000
   86400.00000000  1       1.00000000
   86400.00000000  1       1.00000000
   86400.00000000  1       1.00000000
   86400.00000000  1       1.00000000
   86400.00000000  1       1.00000000
   86400.00000000  1       1.00000000
   86400.00000000  1       1.00000000
   86400.00000000  1       1.00000000
   86400.00000000  1       1.00000000
   86400.00000000  1       1.00000000
   86400.00000000  1       1.00000000
   86400.00000000  1       1.00000000
   86400.00000000  1       1.00000000
   86400.00000000  1       1.00000000
   86400.00000000  1       1.00000000
   86400.00000000  1       1.00000000
   86400.00000000  1       1.00000000
   86400.00000000  1       1.00000000
   86400.00000000  1       1.00000000
   86400.00000000  1       1.00000000
   86400.00000000  1       1.00000000
   86400.00000000  1       1.00000000
   86400.00000000  1       1.00000000
   86400.00000000  1       1.00000000
   86400.00000000  1       1.00000000
   86400.00000000  1       1.00000000
   86400.00000000  1       1.00000000
   86400.00000000  1       1.00000000
   86400.00000000  1       1.00000000
   86400.00000000  1       1.00000000
   86400.00000000  1       1.00000000
   86400.00000000  1       1.00000000
   86400.00000000  1       1.00000000
   86400.00000000  1       1.00000000
   86400.00000000  1       1.00000000
   86400.00000000  1       1.00000000
   86400.00000000  1       1.00000000
   86400.00000000  1       1.00000000
   86400.00000000  1       1.00000000
   86400.00000000  1       1.00000000
   86400.00000000  1       1.00000000
   86400.00000000  1       1.00000000
   86400.00000000  1       1.00000000
   86400.00000000  1       1.00000000
   86400.00000000  1       1.00000000
   86400.00000000  1       1.00000000
   86400.00000000  1       1.00000000
   86400.00000000  1       1.00000000
   86400.00000000  1       1.00000000
   86400.00000000  1       1.00000000
   86400.00000000  1       1.00000000
   86400.00000000  1       1.00000000
   86400.00000000  1       1.00000000
   86400.00000000  1       1.00000000
   86400.00000000  1       1.00000000
   86400.00000000  1       1.00000000
   86400.00000000  1       1.00000000
   86400.00000000  1       1.00000000
   86400.00000000  1       1.00000000
   86400.00000000  1       1.00000000
   86400.00000000  1       1.00000000
   86400.00000000  1       1.00000000
   86400.00000000  1       1.00000000
   86400.00000000  1       1.00000000
   86400.00000000  1       1.00000000
   86400.00000000  1       1.00000000
   86400.00000000  1       1.00000000
   86400.00000000  1       1.00000000
   86400.00000000  1       1.00000000
   86400.00000000  1       1.00000000
   86400.00000000  1       1.00000000
   86400.00000000  1       1.00000000
   86400.00000000  1       1.00000000
   86400.00000000  1       1.00000000
   86400.00000000  1       1.00000000
   86400.00000000  1       1.00000000
   86400.00000000  1       1.00000000
   86400.00000000  1       1.00000000
   86400.00000000  1       1.00000000
   86400.00000000  1       1.00000000
   86400.00000000  1       1.00000000
   86400.00000000  1       1.00000000
   86400.00000000  1       1.00000000
   86400.00000000  1       1.00000000
   86400.00000000  1       1.00000000
   86400.00000000  1       1.00000000
   86400.00000000  1       1.00000000
   86400.00000000  1       1.00000000
   86400.00000000  1       1.00000000
   86400.00000000  1       1.00000000
   86400.00000000  1       1.00000000
   86400.00000000  1       1.00000000
   86400.00000000  1       1.00000000
   86400.00000000  1       1.00000000
   86400.00000000  1       1.00000000
   86400.00000000  1       1.00000000
   86400.00000000  1       1.00000000
   86400.00000000  1       1.00000000
   86400.00000000  1       1.00000000
   86400.00000000  1       1.00000000
   86400.00000000  1       1.00000000
   86400.00000000  1       1.00000000
   86400.00000000  1       1.00000000
   86400.00000000  1       1.00000000
   86400.00000000  1       1.00000000
   86400.00000000  1       1.00000000
   86400.00000000  1       1.00000000
   86400.00000000  1       1.00000000
   86400.00000000  1       1.00000000
   86400.00000000  1       1.00000000
   86400.00000000  1       1.00000000
   86400.00000000  1       1.00000000
   86400.00000000  1       1.00000000
   86400.00000000  1       1.00000000
   86400.00000000  1       1.00000000
   86400.00000000  1       1.00000000
   86400.00000000  1       1.00000000
   86400.00000000  1       1.00000000
   86400.00000000  1       1.00000000
   86400.00000000  1       1.00000000
   86400.00000000  1       1.00000000
   86400.00000000  1       1.00000000
   86400.00000000  1       1.00000000
   86400.00000000  1       1.00000000
   86400.00000000  1       1.00000000
   86400.00000000  1       1.00000000
   86400.00000000  1       1.00000000
   86400.00000000  1       1.00000000
   86400.00000000  1       1.00000000
   86400.00000000  1       1.00000000
   86400.00000000  1       1.00000000
   86400.00000000  1       1.00000000
   86400.00000000  1       1.00000000
   86400.00000000  1       1.00000000
   86400.00000000  1       1.00000000
   86400.00000000  1       1.00000000
   86400.00000000  1       1.00000000
   86400.00000000  1       1.00000000
   86400.00000000  1       1.00000000
   86400.00000000  1       1.00000000
   86400.00000000  1       1.00000000
   86400.00000000  1       1.00000000
   86400.00000000  1       1.00000000
   86400.00000000  1       1.00000000
   86400.00000000  1       1.00000000
   86400.00000000  1       1.00000000
   86400.00000000  1       1.00000000
   86400.00000000  1       1.00000000
   86400.00000000  1       1.00000000
   86400.00000000  1       1.00000000
   86400.00000000  1       1.00000000
   86400.00000000  1       1.00000000
   86400.00000000  1       1.00000000
   86400.00000000  1       1.00000000
   86400.00000000  1       1.00000000
   86400.00000000  1       1.00000000
   86400.00000000  1       1.00000000
   86400.00000000  1       1.00000000
   86400.00000000  1       1.00000000
   86400.00000000  1       1.00000000
   86400.00000000  1       1.00000000
   86400.00000000  1       1.00000000
   86400.00000000  1       1.00000000
   86400.00000000  1       1.00000000
   86400.00000000  1       1.00000000
   86400.00000000  1       1.00000000
   86400.00000000  1       1.00000000
   86400.00000000  1       1.00000000
   86400.00000000  1       1.00000000
   86400.00000000  1       1.00000000
   86400.00000000  1       1.00000000
   86400.00000000  1       1.00000000
   86400.00000000  1       1.00000000
   86400.00000000  1       1.00000000
   86400.00000000  1       1.00000000
   86400.00000000  1       1.00000000
   86400.00000000  1       1.00000000
   86400.00000000  1       1.00000000
   86400.00000000  1       1.00000000
   86400.00000000  1       1.00000000
   86400.00000000  1       1.00000000
   86400.00000000  1       1.00000000
   86400.00000000  1       1.00000000
   86400.00000000  1       1.00000000
   86400.00000000  1       1.00000000
   86400.00000000  1       1.00000000
   86400.00000000  1       1.00000000
   86400.00000000  1       1.00000000
   86400.00000000  1       1.00000000
   86400.00000000  1       1.00000000
   86400.00000000  1       1.00000000
   86400.00000000  1       1.00000000
   86400.00000000  1       1.00000000
   86400.00000000  1       1.00000000
   86400.00000000  1       1.00000000
   86400.00000000  1       1.00000000
   86400.00000000  1       1.00000000
   86400.00000000  1       1.00000000
   86400.00000000  1       1.00000000
   86400.00000000  1       1.00000000
   86400.00000000  1       1.00000000
   86400.00000000  1       1.00000000
   86400.00000000  1       1.00000000
   86400.00000000  1       1.00000000
   86400.00000000  1       1.00000000
   86400.00000000  1       1.00000000
   86400.00000000  1       1.00000000
   86400.00000000  1       1.00000000
   86400.00000000  1       1.00000000
   86400.00000000  1       1.00000000
   86400.00000000  1       1.00000000
   86400.00000000  1       1.00000000
   86400.00000000  1       1.00000000
   86400.00000000  1       1.00000000
   86400.00000000  1       1.00000000
   86400.00000000  1       1.00000000
   86400.00000000  1       1.00000000
   86400.00000000  1       1.00000000
   86400.00000000  1       1.00000000
   86400.00000000  1       1.00000000
   86400.00000000  1       1.00000000
   86400.00000000  1       1.00000000
   86400.00000000  1       1.00000000
   86400.00000000  1       1.00000000
   86400.00000000  1       1.00000000
   86400.00000000  1       1.00000000
   86400.00000000  1       1.00000000
   86400.00000000  1       1.00000000
   86400.00000000  1       1.00000000
   86400.00000000  1       1.00000000
   86400.00000000  1       1.00000000
   86400.00000000  1       1.00000000
   86400.00000000  1       1.00000000
   86400.00000000  1       1.00000000
   86400.00000000  1       1.00000000
   86400.00000000  1       1.00000000
   86400.00000000  1       1.00000000
   86400.00000000  1       1.00000000
   86400.00000000  1       1.00000000
   86400.00000000  1       1.00000000
   86400.00000000  1       1.00000000
   86400.00000000  1       1.00000000
   86400.00000000  1       1.00000000
   86400.00000000  1       1.00000000
   86400.00000000  1       1.00000000
   86400.00000000  1       1.00000000
   86400.00000000  1       1.00000000
   86400.00000000  1       1.00000000
   86400.00000000  1       1.00000000
   86400.00000000  1       1.00000000
   86400.00000000  1       1.00000000
   86400.00000000  1       1.00000000
   86400.00000000  1       1.00000000
   86400.00000000  1       1.00000000
   86400.00000000  1       1.00000000
   86400.00000000  1       1.00000000
   86400.00000000  1       1.00000000
   86400.00000000  1       1.00000000
   86400.00000000  1       1.00000000
   86400.00000000  1       1.00000000
   86400.00000000  1       1.00000000
   86400.00000000  1       1.00000000
   86400.00000000  1       1.00000000
   86400.00000000  1       1.00000000
   86400.00000000  1       1.00000000
   86400.00000000  1       1.00000000
   86400.00000000  1       1.00000000
   86400.00000000  1       1.00000000
   86400.00000000  1       1.00000000
   86400.00000000  1       1.00000000
   86400.00000000  1       1.00000000
   86400.00000000  1       1.00000000
   86400.00000000  1       1.00000000
   86400.00000000  1       1.00000000
   86400.00000000  1       1.00000000
   86400.00000000  1       1.00000000
   86400.00000000  1       1.00000000
   86400.00000000  1       1.00000000
   86400.00000000  1       1.00000000
   86400.00000000  1       1.00000000
   86400.00000000  1       1.00000000
   86400.00000000  1       1.00000000
   86400.00000000  1       1.00000000
   86400.00000000  1       1.00000000
   86400.00000000  1       1.00000000
   86400.00000000  1       1.00000000
   86400.00000000  1       1.00000000
   86400.00000000  1       1.00000000
   86400.00000000  1       1.00000000
   86400.00000000  1       1.00000000
   86400.00000000  1       1.00000000
   86400.00000000  1       1.00000000
   86400.00000000  1       1.00000000
   86400.00000000  1       1.00000000
   86400.00000000  1       1.00000000
   86400.00000000  1       1.00000000
   86400.00000000  1       1.00000000
   86400.00000000  1       1.00000000
   86400.00000000  1       1.00000000
   86400.00000000  1       1.00000000
   86400.00000000  1       1.00000000
   86400.00000000  1       1.00000000
   86400.00000000  1       1.00000000
   86400.00000000  1       1.00000000
   86400.00000000  1       1.00000000
   86400.00000000  1       1.00000000
   86400.00000000  1       1.00000000
   86400.00000000  1       1.00000000
   86400.00000000  1       1.00000000
   86400.00000000  1       1.00000000
   86400.00000000  1       1.00000000
   86400.00000000  1       1.00000000
   86400.00000000  1       1.00000000
   86400.00000000  1       1.00000000
   86400.00000000  1       1.00000000
   86400.00000000  1       1.00000000
   86400.00000000  1       1.00000000
   86400.00000000  1       1.00000000
   86400.00000000  1       1.00000000
   86400.00000000  1       1.00000000
   86400.00000000  1       1.00000000
   86400.00000000  1       1.00000000
   86400.00000000  1       1.00000000
   86400.00000000  1       1.00000000
   86400.00000000  1       1.00000000
   86400.00000000  1       1.00000000
   86400.00000000  1       1.00000000
   86400.00000000  1       1.00000000
   86400.00000000  1       1.00000000
   86400.00000000  1       1.00000000
   86400.00000000  1       1.00000000
   86400.00000000  1       1.00000000
   86400.00000000  1       1.00000000
   86400.00000000  1       1.00000000
   86400.00000000  1       1.00000000
   86400.00000000  1       1.00000000
   86400.00000000  1       1.00000000
   86400.00000000  1       1.00000000
   86400.00000000  1       1.00000000
   86400.00000000  1       1.00000000
   86400.00000000  1       1.00000000
   86400.00000000  1       1.00000000
   86400.00000000  1       1.00000000
   86400.00000000  1       1.00000000
   86400.00000000  1       1.00000000
   86400.00000000  1       1.00000000
   86400.00000000  1       1.00000000
   86400.00000000  1       1.00000000
   86400.00000000  1       1.00000000
   86400.00000000  1       1.00000000
   86400.00000000  1       1.00000000
   86400.00000000  1       1.00000000
   86400.00000000  1       1.00000000
   86400.00000000  1       1.00000000
   86400.00000000  1       1.00000000
   86400.00000000  1       1.00000000
   86400.00000000  1       1.00000000
   86400.00000000  1       1.00000000
   86400.00000000  1       1.00000000
   86400.00000000  1       1.00000000
   86400.00000000  1       1.00000000
   86400.00000000  1       1.00000000
   86400.00000000  1       1.00000000
   86400.00000000  1       1.00000000
   86400.00000000  1       1.00000000
   86400.00000000  1       1.00000000
   86400.00000000  1       1.00000000
   86400.00000000  1       1.00000000
   86400.00000000  1       1.00000000
   86400.00000000  1       1.00000000
   86400.00000000  1       1.00000000
   86400.00000000  1       1.00000000
   86400.00000000  1       1.00000000
   86400.00000000  1       1.00000000
   86400.00000000  1       1.00000000
   86400.00000000  1       1.00000000
   86400.00000000  1       1.00000000
   86400.00000000  1       1.00000000
   86400.00000000  1       1.00000000
   86400.00000000  1       1.00000000
   86400.00000000  1       1.00000000
   86400.00000000  1       1.00000000
   86400.00000000  1       1.00000000
   86400.00000000  1       1.00000000
   86400.00000000  1       1.00000000
   86400.00000000  1       1.00000000
   86400.00000000  1       1.00000000
   86400.00000000  1       1.00000000
   86400.00000000  1       1.00000000
   86400.00000000  1       1.00000000
   86400.00000000  1       1.00000000
   86400.00000000  1       1.00000000
   86400.00000000  1       1.00000000
   86400.00000000  1       1.00000000
   86400.00000000  1       1.00000000
   86400.00000000  1       1.00000000
   86400.00000000  1       1.00000000
   86400.00000000  1       1.00000000
   86400.00000000  1       1.00000000
   86400.00000000  1       1.00000000
   86400.00000000  1       1.00000000
   86400.00000000  1       1.00000000
   86400.00000000  1       1.00000000
   86400.00000000  1       1.00000000
   86400.00000000  1       1.00000000
   86400.00000000  1       1.00000000
   86400.00000000  1       1.00000000
   86400.00000000  1       1.00000000
   86400.00000000  1       1.00000000
   86400.00000000  1       1.00000000
   86400.00000000  1       1.00000000
   86400.00000000  1       1.00000000
   86400.00000000  1       1.00000000
   86400.00000000  1       1.00000000
   86400.00000000  1       1.00000000
   86400.00000000  1       1.00000000
   86400.00000000  1       1.00000000
   86400.00000000  1       1.00000000
   86400.00000000  1       1.00000000
   86400.00000000  1       1.00000000
   86400.00000000  1       1.00000000
   86400.00000000  1       1.00000000
   86400.00000000  1       1.00000000
   86400.00000000  1       1.00000000
   86400.00000000  1       1.00000000
   86400.00000000  1       1.00000000
   86400.00000000  1       1.00000000
   86400.00000000  1       1.00000000
   86400.00000000  1       1.00000000
   86400.00000000  1       1.00000000
   86400.00000000  1       1.00000000
   86400.00000000  1       1.00000000
   86400.00000000  1       1.00000000
   86400.00000000  1       1.00000000
   86400.00000000  1       1.00000000
   86400.00000000  1       1.00000000
   86400.00000000  1       1.00000000
   86400.00000000  1       1.00000000
   86400.00000000  1       1.00000000
   86400.00000000  1       1.00000000
   86400.00000000  1       1.00000000
   86400.00000000  1       1.00000000
   86400.00000000  1       1.00000000
   86400.00000000  1       1.00000000
   86400.00000000  1       1.00000000
   86400.00000000  1       1.00000000
   86400.00000000  1       1.00000000
   86400.00000000  1       1.00000000
   86400.00000000  1       1.00000000
   86400.00000000  1       1.00000000
   86400.00000000  1       1.00000000
   86400.00000000  1       1.00000000
   86400.00000000  1       1.00000000
   86400.00000000  1       1.00000000
   86400.00000000  1       1.00000000
   86400.00000000  1       1.00000000
   86400.00000000  1       1.00000000
   86400.00000000  1       1.00000000
   86400.00000000  1       1.00000000
   86400.00000000  1       1.00000000
   86400.00000000  1       1.00000000
   86400.00000000  1       1.00000000
   86400.00000000  1       1.00000000
   86400.00000000  1       1.00000000
   86400.00000000  1       1.00000000
   86400.00000000  1       1.00000000
   86400.00000000  1       1.00000000
   86400.00000000  1       1.00000000
   86400.00000000  1       1.00000000
   86400.00000000  1       1.00000000
   86400.00000000  1       1.00000000
   86400.00000000  1       1.00000000
   86400.00000000  1       1.00000000
   86400.00000000  1       1.00000000
   86400.00000000  1       1.00000000
   86400.00000000  1       1.00000000
   86400.00000000  1       1.00000000
   86400.00000000  1       1.00000000
   86400.00000000  1       1.00000000
   86400.00000000  1       1.00000000
   86400.00000000  1       1.00000000
   86400.00000000  1       1.00000000
   86400.00000000  1       1.00000000
   86400.00000000  1       1.00000000
   86400.00000000  1       1.00000000
   86400.00000000  1       1.00000000
   86400.00000000  1       1.00000000
   86400.00000000  1       1.00000000
   86400.00000000  1       1.00000000
   86400.00000000  1       1.00000000
   86400.00000000  1       1.00000000
   86400.00000000  1       1.00000000
   86400.00000000  1       1.00000000
   86400.00000000  1       1.00000000
   86400.00000000  1       1.00000000
   86400.00000000  1       1.00000000
   86400.00000000  1       1.00000000
   86400.00000000  1       1.00000000
   86400.00000000  1       1.00000000
   86400.00000000  1       1.00000000
   86400.00000000  1       1.00000000
   86400.00000000  1       1.00000000
   86400.00000000  1       1.00000000
   86400.00000000  1       1.00000000
   86400.00000000  1       1.00000000
   86400.00000000  1       1.00000000
   86400.00000000  1       1.00000000
   86400.00000000  1       1.00000000
   86400.00000000  1       1.00000000
   86400.00000000  1       1.00000000
   86400.00000000  1       1.00000000
   86400.00000000  1       1.00000000
   86400.00000000  1       1.00000000
   86400.00000000  1       1.00000000
   86400.00000000  1       1.00000000
   86400.00000000  1       1.00000000
   86400.00000000  1       1.00000000
   86400.00000000  1       1.00000000
   86400.00000000  1       1.00000000
   86400.00000000  1       1.00000000
   86400.00000000  1       1.00000000
   86400.00000000  1       1.00000000
   86400.00000000  1       1.00000000
   86400.00000000  1       1.00000000
   86400.00000000  1       1.00000000
   86400.00000000  1       1.00000000
   86400.00000000  1       1.00000000
   86400.00000000  1       1.00000000
   86400.00000000  1       1.00000000
   86400.00000000  1       1.00000000
   86400.00000000  1       1.00000000
   86400.00000000  1       1.00000000
   86400.00000000  1       1.00000000
   86400.00000000  1       1.00000000
   86400.00000000  1       1.00000000
   86400.00000000  1       1.00000000
   86400.00000000  1       1.00000000
   86400.00000000  1       1.00000000
   86400.00000000  1       1.00000000
   86400.00000000  1       1.00000000
   86400.00000000  1       1.00000000
   86400.00000000  1       1.00000000
   86400.00000000  1       1.00000000
   86400.00000000  1       1.00000000
   86400.00000000  1       1.00000000
   86400.00000000  1       1.00000000
   86400.00000000  1       1.00000000
   86400.00000000  1       1.00000000
   86400.00000000  1       1.00000000
   86400.00000000  1       1.00000000
   86400.00000000  1       1.00000000
   86400.00000000  1       1.00000000
   86400.00000000  1       1.00000000
   86400.00000000  1       1.00000000
   86400.00000000  1       1.00000000
   86400.00000000  1       1.00000000
   86400.00000000  1       1.00000000
   86400.00000000  1       1.00000000
   86400.00000000  1       1.00000000
   86400.00000000  1       1.00000000
   86400.00000000  1       1.00000000
   86400.00000000  1       1.00000000
   86400.00000000  1       1.00000000
   86400.00000000  1       1.00000000
   86400.00000000  1       1.00000000
   86400.00000000  1       1.00000000
   86400.00000000  1       1.00000000
   86400.00000000  1       1.00000000
   86400.00000000  1       1.00000000
   86400.00000000  1       1.00000000
   86400.00000000  1       1.00000000
   86400.00000000  1       1.00000000
   86400.00000000  1       1.00000000
   86400.00000000  1       1.00000000
   86400.00000000  1       1.00000000
   86400.00000000  1       1.00000000
   86400.00000000  1       1.00000000
   86400.00000000  1       1.00000000
   86400.00000000  1       1.00000000
   86400.00000000  1       1.00000000
   86400.00000000  1       1.00000000
   86400.00000000  1       1.00000000
   86400.00000000  1       1.00000000
   86400.00000000  1       1.00000000
   86400.00000000  1       1.00000000
   86400.00000000  1       1.00000000
   86400.00000000  1       1.00000000
   86400.00000000  1       1.00000000
   86400.00000000  1       1.00000000
   86400.00000000  1       1.00000000
   86400.00000000  1       1.00000000
   86400.00000000  1       1.00000000
   86400.00000000  1       1.00000000
   86400.00000000  1       1.00000000
   86400.00000000  1       1.00000000
   86400.00000000  1       1.00000000
   86400.00000000  1       1.00000000
   86400.00000000  1       1.00000000
   86400.00000000  1       1.00000000
   86400.00000000  1       1.00000000
   86400.00000000  1       1.00000000
   86400.00000000  1       1.00000000
   86400.00000000  1       1.00000000
   86400.00000000  1       1.00000000
   86400.00000000  1       1.00000000
   86400.00000000  1       1.00000000
   86400.00000000  1       1.00000000
   86400.00000000  1       1.00000000
   86400.00000000  1       1.00000000
   86400.00000000  1       1.00000000
   86400.00000000  1       1.00000000
   86400.00000000  1       1.00000000
   86400.00000000  1       1.00000000
   86400.00000000  1       1.00000000
   86400.00000000  1       1.00000000
   86400.00000000  1       1.00000000
   86400.00000000  1       1.00000000
   86400.00000000  1       1.00000000
   86400.00000000  1       1.00000000
   86400.00000000  1       1.00000000
   86400.00000000  1       1.00000000
   86400.00000000  1       1.00000000
   86400.00000000  1       1.00000000
   86400.00000000  1       1.00000000
   86400.00000000  1       1.00000000
   86400.00000000  1       1.00000000
   86400.00000000  1       1.00000000
   86400.00000000  1       1.00000000
   86400.00000000  1       1.00000000
   86400.00000000  1       1.00000000
   86400.00000000  1       1.00000000
   86400.00000000  1       1.00000000
   86400.00000000  1       1.00000000
   86400.00000000  1       1.00000000
   86400.00000000  1       1.00000000
   86400.00000000  1       1.00000000
   86400.00000000  1       1.00000000
   86400.00000000  1       1.00000000
   86400.00000000  1       1.00000000
   86400.00000000  1       1.00000000
   86400.00000000  1       1.00000000
   86400.00000000  1       1.00000000
   86400.00000000  1       1.00000000
   86400.00000000  1       1.00000000
   86400.00000000  1       1.00000000
   86400.00000000  1       1.00000000
   86400.00000000  1       1.00000000
   86400.00000000  1       1.00000000
   86400.00000000  1       1.00000000
   86400.00000000  1       1.00000000
   86400.00000000  1       1.00000000
   86400.00000000  1       1.00000000
   86400.00000000  1       1.00000000
   86400.00000000  1       1.00000000
   86400.00000000  1       1.00000000
   86400.00000000  1       1.00000000
   86400.00000000  1       1.00000000
   86400.00000000  1       1.00000000
   86400.00000000  1       1.00000000
   86400.00000000  1       1.00000000
   86400.00000000  1       1.00000000
   86400.00000000  1       1.00000000
   86400.00000000  1       1.00000000
   86400.00000000  1       1.00000000
   86400.00000000  1       1.00000000
   86400.00000000  1       1.00000000
   86400.00000000  1       1.00000000
   86400.00000000  1       1.00000000
   86400.00000000  1       1.00000000
   86400.00000000  1       1.00000000
   86400.00000000  1       1.00000000
   86400.00000000  1       1.00000000
   86400.00000000  1       1.00000000
   86400.00000000  1       1.00000000
   86400.00000000  1       1.00000000
   86400.00000000  1       1.00000000
   86400.00000000  1       1.00000000
   86400.00000000  1       1.00000000
   86400.00000000  1       1.00000000
   86400.00000000  1       1.00000000
   86400.00000000  1       1.00000000
   86400.00000000  1       1.00000000
   86400.00000000  1       1.00000000
   86400.00000000  1       1.00000000
   86400.00000000  1       1.00000000
   86400.00000000  1       1.00000000
   86400.00000000  1       1.00000000
   86400.00000000  1       1.00000000
   86400.00000000  1       1.00000000
   86400.00000000  1       1.00000000
   86400.00000000  1       1.00000000
   86400.00000000  1       1.00000000
   86400.00000000  1       1.00000000
   86400.00000000  1       1.00000000
   86400.00000000  1       1.00000000
   86400.00000000  1       1.00000000
   86400.00000000  1       1.00000000
   86400.00000000  1       1.00000000
   86400.00000000  1       1.00000000
   86400.00000000  1       1.00000000
   86400.00000000  1       1.00000000
   86400.00000000  1       1.00000000
   86400.00000000  1       1.00000000
   86400.00000000  1       1.00000000
   86400.00000000  1       1.00000000