# File generated by Flopy version 3.3.2 on 08/10/2021 at 12:26:43.
BEGIN options
  PRINT_INPUT
  PRINT_FLOWS
  SAVE_FLOWS
END options

BEGIN dimensions
  MAXBOUND  360
END dimensions

BEGIN period  1
  1 1 5  1.75705036E-08
  1 2 4  1.96229342E-08
  1 2 5  2.65492696E-07
  1 2 9  1.52120115E-08
  1 3 4  9.86049611E-08
  1 3 5  7.78348993E-07
  1 3 6  5.88676076E-08
  1 3 8  9.42243420E-10
  1 3 9  5.45641910E-07
  1 4 5  1.01852565E-06
  1 4 6  1.76448540E-07
  1 4 7  1.38500371E-07
  1 4 8  3.37799275E-07
  1 4 9  5.25123804E-07
  1 4 10  1.30406277E-08
  1 5 5  8.01074588E-07
  1 5 6  4.20320777E-09
  1 5 7  4.14829013E-07
  1 5 8  9.92664371E-07
  1 5 9  1.11349944E-06
  1 5 10  6.14420832E-07
  1 6 4  6.06005891E-09
  1 6 5  1.05785903E-06
  1 6 6  4.33282285E-08
  1 6 7  6.27407610E-07
  1 6 8  7.13963846E-07
  1 6 9  9.50439916E-07
  1 6 10  8.44563438E-07
  1 6 11  2.30196301E-07
  1 6 12  1.82891844E-07
  1 6 13  1.11119283E-07
  1 7 4  9.09985068E-09
  1 7 5  1.19612936E-06
  1 7 6  2.99133905E-07
  1 7 7  8.33524407E-07
  1 7 8  8.74776058E-07
  1 7 9  2.22325983E-07
  1 7 10  1.13126666E-06
  1 7 11  1.10302679E-06
  1 7 12  5.76041039E-07
  1 7 13  8.56921383E-07
  1 7 14  3.94834059E-07
  1 7 15  3.60441432E-07
  1 8 4  1.40425668E-07
  1 8 5  1.26309725E-06
  1 8 6  3.29812742E-07
  1 8 7  8.40883423E-07
  1 8 8  7.67706991E-07
  1 8 9  1.81994878E-07
  1 8 10  7.67892083E-07
  1 8 11  1.45281785E-07
  1 8 12  7.75843864E-07
  1 8 13  8.22424625E-07
  1 8 14  6.48748772E-07
  1 8 15  7.59198283E-07
  1 8 16  3.43965696E-07
  1 8 17  1.68443473E-07
  1 8 18  9.01105506E-08
  1 8 19  6.63082849E-08
  1 8 20  5.33846130E-08
  1 8 21  1.62054792E-08
  1 9 4  6.47119822E-07
  1 9 5  6.35239155E-07
  1 9 6  5.42634226E-07
  1 9 7  7.87412152E-07
  1 9 8  5.36651374E-07
  1 9 9  1.06247474E-07
  1 9 10  3.24581244E-08
  1 9 11  4.70180775E-07
  1 9 12  6.61988339E-07
  1 9 13  7.20778809E-07
  1 9 14  8.58018661E-07
  1 9 15  9.38870908E-07
  1 9 16  7.97101366E-07
  1 9 17  4.71358811E-07
  1 9 18  5.46610282E-07
  1 9 19  1.17310088E-06
  1 9 20  1.08026202E-06
  1 9 21  1.01700140E-06
  1 9 22  9.12063838E-07
  1 9 23  7.11782596E-07
  1 9 24  5.48845311E-07
  1 9 25  6.40246313E-07
  1 9 26  5.26409911E-08
  1 10 3  6.85020214E-08
  1 10 4  1.20359389E-06
  1 10 5  7.17290866E-07
  1 10 6  6.34178355E-07
  1 10 7  5.82491064E-07
  1 10 8  1.27314815E-06
  1 10 9  6.09160103E-07
  1 10 11  4.51745917E-07
  1 10 12  3.55322267E-07
  1 10 13  6.35891182E-07
  1 10 14  3.76802873E-07
  1 10 15  6.81230989E-07
  1 10 16  9.26542525E-07
  1 10 17  8.51485530E-07
  1 10 18  2.88544730E-07
  1 10 19  5.25695590E-07
  1 10 20  6.88780456E-07
  1 10 21  5.83652904E-07
  1 10 22  7.57217843E-07
  1 10 23  1.01470433E-06
  1 10 24  1.27314815E-06
  1 10 25  1.27314815E-06
  1 10 26  7.68616124E-07
  1 10 27  2.46387328E-09
  1 11 3  2.71323118E-08
  1 11 4  1.07221607E-06
  1 11 5  8.49955402E-07
  1 11 6  2.07402369E-07
  1 11 7  9.34075197E-07
  1 11 8  1.27314815E-06
  1 11 9  8.12959941E-07
  1 11 10  2.50380295E-08
  1 11 11  8.78424946E-08
  1 11 12  2.75598406E-07
  1 11 13  5.97683404E-07
  1 11 14  6.77894957E-07
  1 11 15  5.70992371E-07
  1 11 16  7.93802749E-07
  1 11 17  1.18027799E-06
  1 11 18  1.14698741E-06
  1 11 19  8.54410485E-07
  1 11 20  9.12167213E-07
  1 11 21  7.83888064E-07
  1 11 22  9.70271762E-07
  1 11 23  1.25572619E-06
  1 11 24  1.27314815E-06
  1 11 25  1.27314815E-06
  1 11 26  1.27314815E-06
  1 11 27  2.88609079E-07
  1 12 2  8.55570840E-08
  1 12 3  7.36261566E-07
  1 12 4  1.27314815E-06
  1 12 5  1.24078797E-06
  1 12 6  7.26041588E-07
  1 12 7  1.68360740E-07
  1 12 8  1.18411466E-06
  1 12 9  6.97236516E-07
  1 12 10  9.31534415E-08
  1 12 11  2.30848448E-07
  1 12 12  3.39610471E-07
  1 12 13  4.85647093E-07
  1 12 14  3.10374530E-07
  1 12 15  9.55284879E-07
  1 12 16  9.34320625E-07
  1 12 17  2.99109776E-07
  1 12 18  3.10507115E-07
  1 12 19  5.60934566E-07
  1 12 20  4.06362029E-07
  1 12 21  4.99679864E-07
  1 12 22  6.92549028E-07
  1 12 23  1.02521341E-06
  1 12 24  1.13474910E-06
  1 12 25  1.27314815E-06
  1 12 26  1.27314815E-06
  1 12 27  2.05290774E-07
  1 13 1  1.00522821E-08
  1 13 2  1.08239388E-06
  1 13 3  1.27314815E-06
  1 13 4  1.27314815E-06
  1 13 5  1.27314815E-06
  1 13 6  7.19392169E-07
  1 13 7  2.55471502E-07
  1 13 8  3.02700440E-07
  1 13 9  5.97625087E-07
  1 13 10  8.96989850E-08
  1 13 11  8.53393488E-07
  1 13 12  4.73378914E-07
  1 13 13  5.49631533E-07
  1 13 14  8.26029182E-07
  1 13 15  7.77520048E-07
  1 13 16  1.27024400E-06
  1 13 17  6.75100681E-07
  1 13 18  1.80101136E-07
  1 13 19  1.07815161E-07
  1 13 20  2.70806767E-07
  1 13 21  7.49555644E-07
  1 13 22  1.08709971E-06
  1 13 23  1.11752321E-06
  1 13 24  1.25934565E-06
  1 13 25  1.27314815E-06
  1 13 26  1.27287387E-06
  1 13 27  1.15060039E-07
  1 14 2  5.43963520E-07
  1 14 3  1.27314815E-06
  1 14 4  1.27314815E-06
  1 14 5  1.27314815E-06
  1 14 6  1.27314815E-06
  1 14 7  7.04399284E-07
  1 14 8  5.97628422E-07
  1 14 9  6.85800778E-07
  1 14 10  6.34240360E-07
  1 14 11  5.04515000E-07
  1 14 12  9.43623864E-07
  1 14 13  1.78471801E-07
  1 14 14  5.45464623E-07
  1 14 15  6.70189484E-07
  1 14 16  1.27175617E-06
  1 14 17  8.63707935E-07
  1 14 18  7.65821896E-07
  1 14 19  7.25590373E-07
  1 14 20  4.88747935E-07
  1 14 21  2.97839099E-07
  1 14 22  5.15956868E-07
  1 14 23  1.09628772E-06
  1 14 24  8.51028997E-07
  1 14 25  1.27314815E-06
  1 14 26  1.16869487E-06
  1 15 2  8.67937926E-08
  1 15 3  1.07629241E-06
  1 15 4  1.27314815E-06
  1 15 5  1.27314815E-06
  1 15 6  1.23149253E-06
  1 15 7  7.88305277E-07
  1 15 8  1.27314815E-06
  1 15 9  1.27314815E-06
  1 15 10  5.48707055E-07
  1 15 11  5.90392948E-07
  1 15 12  6.25418948E-07
  1 15 13  5.08010362E-07
  1 15 14  9.18482406E-07
  1 15 15  8.90101130E-07
  1 15 16  1.27314815E-06
  1 15 17  4.91446113E-07
  1 15 18  1.33861250E-07
  1 15 19  2.11261668E-07
  1 15 20  6.16858307E-08
  1 15 21  1.60861998E-07
  1 15 22  1.20128349E-07
  1 15 23  5.47532887E-07
  1 15 24  8.20037777E-07
  1 15 25  1.27314815E-06
  1 15 26  9.65284573E-07
  1 16 3  3.89024353E-07
  1 16 4  1.27314815E-06
  1 16 5  1.27314815E-06
  1 16 6  1.27314815E-06
  1 16 7  1.27314815E-06
  1 16 8  1.27314815E-06
  1 16 9  1.27032596E-06
  1 16 10  1.05257016E-06
  1 16 11  7.69845601E-07
  1 16 12  5.15125873E-07
  1 16 13  6.41860315E-07
  1 16 14  6.11645704E-07
  1 16 15  1.03991487E-06
  1 16 16  1.27314815E-06
  1 16 17  1.13778271E-06
  1 16 18  4.65023653E-07
  1 16 19  1.58657872E-07
  1 16 20  1.96919347E-07
  1 16 21  2.61649328E-07
  1 16 22  2.36560775E-08
  1 16 23  3.06861640E-07
  1 16 24  4.83576601E-07
  1 16 25  1.27314815E-06
  1 16 26  6.92932078E-07
  1 17 3  9.01541247E-08
  1 17 4  8.82785971E-07
  1 17 5  1.26972359E-06
  1 17 6  1.27314815E-06
  1 17 7  1.27314815E-06
  1 17 8  1.27314815E-06
  1 17 9  9.49406571E-07
  1 17 10  1.15821843E-06
  1 17 11  1.10521796E-06
  1 17 12  1.09262974E-06
  1 17 13  1.26017854E-06
  1 17 14  1.03855727E-06
  1 17 15  1.22238277E-06
  1 17 16  1.01659840E-06
  1 17 17  1.16873680E-06
  1 17 18  4.12749590E-07
  1 17 19  3.45451992E-07
  1 17 20  2.29042732E-07
  1 17 21  9.24454760E-08
  1 17 22  3.06076462E-07
  1 17 23  4.44105756E-07
  1 17 24  9.61590700E-07
  1 17 25  1.27314815E-06
  1 17 26  6.68452695E-07
  1 18 5  8.97632266E-07
  1 18 6  1.27314815E-06
  1 18 7  1.27314815E-06
  1 18 8  1.27314815E-06
  1 18 9  7.83959293E-07
  1 18 10  3.49616969E-07
  1 18 11  6.29984010E-07
  1 18 12  6.38722705E-07
  1 18 13  8.71707625E-07
  1 18 14  8.49078386E-07
  1 18 15  5.71357099E-07
  1 18 16  1.64265634E-07
  1 18 17  8.91806812E-07
  1 18 18  6.62640204E-07
  1 18 19  1.50867532E-07
  1 18 20  2.57521730E-07
  1 18 21  6.55691395E-08
  1 18 22  1.55458255E-07
  1 18 23  4.54434390E-07
  1 18 24  1.08382615E-06
  1 18 25  1.25944285E-06
  1 18 26  1.03777680E-06
  1 18 27  2.41815285E-08
  1 19 5  3.12283348E-07
  1 19 6  1.05413190E-06
  1 19 7  1.27314815E-06
  1 19 8  1.27314815E-06
  1 19 9  6.91862850E-07
  1 19 10  2.01706557E-07
  1 19 11  2.60250804E-07
  1 19 12  6.49443120E-07
  1 19 13  2.22898508E-07
  1 19 14  1.13133092E-07
  1 19 15  1.15838839E-07
  1 19 16  1.65733106E-07
  1 19 17  1.71183810E-07
  1 19 18  3.94587118E-07
  1 19 19  2.32229455E-07
  1 19 20  1.52815576E-07
  1 19 21  2.85858044E-07
  1 19 22  2.75828716E-07
  1 19 23  7.57777956E-07
  1 19 24  1.24212042E-06
  1 19 25  8.54854096E-07
  1 19 26  1.21259908E-06
  1 19 27  1.94897685E-07
  1 20 6  3.21096386E-09
  1 20 7  7.15584307E-07
  1 20 8  1.16624598E-06
  1 20 9  8.00750997E-07
  1 20 10  2.22453212E-09
  1 20 11  2.37758251E-07
  1 20 12  5.77580521E-07
  1 20 13  8.26418316E-07
  1 20 14  7.53896070E-07
  1 20 15  6.52829459E-07
  1 20 16  6.51018820E-07
  1 20 17  8.66673777E-07
  1 20 18  4.75587876E-07
  1 20 19  5.91748025E-07
  1 20 20  3.16244397E-07
  1 20 21  2.95928092E-07
  1 20 22  2.20409433E-07
  1 20 23  2.71973430E-07
  1 20 24  3.66271310E-07
  1 20 25  4.19118324E-07
  1 20 26  3.82771402E-07
  1 21 8  3.80285987E-08
  1 21 9  1.00179890E-06
  1 21 10  9.45469307E-08
  1 21 11  3.33250635E-08
  1 21 12  1.38898403E-08
  1 21 15  5.53305841E-09
  1 21 16  4.64201759E-09
  1 21 17  2.23692103E-08
  1 21 18  6.82577510E-09
END period  1

