# File generated by Flopy version 3.3.4 on 11/28/2021 at 15:02:50.
BEGIN griddata
  strt  LAYERED
    INTERNAL  FACTOR  1.0
         701.00000000     635.00000000     613.00000000     611.00000000     611.00000000     610.00000000     612.00000000     623.00000000     633.00000000     624.00000000     643.00000000     636.00000000     626.00000000     631.00000000     634.00000000     638.00000000     648.00000000     647.00000000     690.00000000     712.00000000     742.00000000     767.00000000     769.00000000     776.00000000     785.00000000     778.00000000     768.00000000     757.00000000     760.00000000     760.00000000     760.00000000     761.00000000     761.00000000     761.00000000     762.00000000     762.00000000     762.00000000     762.00000000     762.00000000     762.00000000     762.00000000     762.00000000     762.00000000     762.00000000     762.00000000     762.00000000     762.00000000     761.00000000     761.00000000     761.00000000     761.00000000     760.00000000     760.00000000     760.00000000     760.00000000     759.00000000     759.00000000     759.00000000     759.00000000     758.00000000     758.00000000     758.00000000     758.00000000     756.00000000     756.00000000     756.00000000     756.00000000     756.00000000     754.00000000     754.00000000     754.00000000     754.00000000     753.00000000     753.00000000     753.00000000     753.00000000     752.00000000     752.00000000     752.00000000     752.00000000     752.00000000     752.00000000     752.00000000     752.00000000     753.00000000     753.00000000     753.00000000     753.00000000     754.00000000     754.00000000     754.00000000     754.00000000     754.00000000     755.00000000     755.00000000     755.00000000     755.00000000     757.00000000     757.00000000     757.00000000     757.00000000     760.00000000     760.00000000     760.00000000     760.00000000     764.00000000     764.00000000     764.00000000     764.00000000     769.00000000     769.00000000     769.00000000     769.00000000     774.00000000     774.00000000     774.00000000     774.00000000     774.00000000     779.00000000     779.00000000     779.00000000     779.00000000     783.00000000     783.00000000     783.00000000     783.00000000     786.00000000     786.00000000     786.00000000     786.00000000     788.00000000     788.00000000     788.00000000     788.00000000     789.00000000     789.00000000     789.00000000     789.00000000     790.00000000     790.00000000     790.00000000     790.00000000     790.00000000     790.00000000     790.00000000     790.00000000     790.00000000     790.00000000     790.00000000     790.00000000     790.00000000     792.00000000     792.00000000     792.00000000     792.00000000     794.00000000     794.00000000     794.00000000     794.00000000     797.00000000     797.00000000     797.00000000     797.00000000     802.00000000     802.00000000     802.00000000     802.00000000     802.00000000     806.00000000     806.00000000     806.00000000     806.00000000     809.00000000     809.00000000     809.00000000     809.00000000     812.00000000     812.00000000     812.00000000     812.00000000     815.00000000     815.00000000     815.00000000     815.00000000     817.00000000     817.00000000     817.00000000     817.00000000     820.00000000     820.00000000     820.00000000     820.00000000     820.00000000     822.00000000     822.00000000     822.00000000     822.00000000     825.00000000     825.00000000     825.00000000     825.00000000     826.00000000     826.00000000     826.00000000     826.00000000     827.00000000     827.00000000     827.00000000     827.00000000     828.00000000     828.00000000     828.00000000     828.00000000     827.00000000     827.00000000     827.00000000     827.00000000     827.00000000     827.00000000     827.00000000     827.00000000     827.00000000     829.00000000     829.00000000     829.00000000     829.00000000     831.00000000     831.00000000     831.00000000     831.00000000     833.00000000     833.00000000     833.00000000     833.00000000     835.00000000     835.00000000     835.00000000     835.00000000     837.00000000     837.00000000     837.00000000     837.00000000     837.00000000     839.00000000     839.00000000     839.00000000     839.00000000     841.00000000     841.00000000     841.00000000     841.00000000     842.00000000     842.00000000     842.00000000     842.00000000     844.00000000     844.00000000     844.00000000     847.00000000     847.00000000     850.00000000     856.00000000     860.00000000     861.00000000     866.00000000     842.00000000     809.00000000     819.00000000     840.00000000     886.00000000
         701.00000000     635.00000000     613.00000000     611.00000000     611.00000000     610.00000000     612.00000000     623.00000000     633.00000000     624.00000000     643.00000000     636.00000000     626.00000000     631.00000000     634.00000000     638.00000000     648.00000000     647.00000000     690.00000000     712.00000000     742.00000000     767.00000000     769.00000000     776.00000000     785.00000000     778.00000000     768.00000000     757.00000000     760.00000000     760.00000000     760.00000000     761.00000000     761.00000000     761.00000000     762.00000000     762.00000000     762.00000000     762.00000000     762.00000000     762.00000000     762.00000000     762.00000000     762.00000000     762.00000000     762.00000000     762.00000000     762.00000000     761.00000000     761.00000000     761.00000000     761.00000000     760.00000000     760.00000000     760.00000000     760.00000000     759.00000000     759.00000000     759.00000000     759.00000000     758.00000000     758.00000000     758.00000000     758.00000000     756.00000000     756.00000000     756.00000000     756.00000000     756.00000000     754.00000000     754.00000000     754.00000000     754.00000000     753.00000000     753.00000000     753.00000000     753.00000000     752.00000000     752.00000000     752.00000000     752.00000000     752.00000000     752.00000000     752.00000000     752.00000000     753.00000000     753.00000000     753.00000000     753.00000000     754.00000000     754.00000000     754.00000000     754.00000000     754.00000000     755.00000000     755.00000000     755.00000000     755.00000000     757.00000000     757.00000000     757.00000000     757.00000000     760.00000000     760.00000000     760.00000000     760.00000000     764.00000000     764.00000000     764.00000000     764.00000000     769.00000000     769.00000000     769.00000000     769.00000000     774.00000000     774.00000000     774.00000000     774.00000000     774.00000000     779.00000000     779.00000000     779.00000000     779.00000000     783.00000000     783.00000000     783.00000000     783.00000000     786.00000000     786.00000000     786.00000000     786.00000000     788.00000000     788.00000000     788.00000000     788.00000000     789.00000000     789.00000000     789.00000000     789.00000000     790.00000000     790.00000000     790.00000000     790.00000000     790.00000000     790.00000000     790.00000000     790.00000000     790.00000000     790.00000000     790.00000000     790.00000000     790.00000000     792.00000000     792.00000000     792.00000000     792.00000000     794.00000000     794.00000000     794.00000000     794.00000000     797.00000000     797.00000000     797.00000000     797.00000000     802.00000000     802.00000000     802.00000000     802.00000000     802.00000000     806.00000000     806.00000000     806.00000000     806.00000000     809.00000000     809.00000000     809.00000000     809.00000000     812.00000000     812.00000000     812.00000000     812.00000000     815.00000000     815.00000000     815.00000000     815.00000000     817.00000000     817.00000000     817.00000000     817.00000000     820.00000000     820.00000000     820.00000000     820.00000000     820.00000000     822.00000000     822.00000000     822.00000000     822.00000000     825.00000000     825.00000000     825.00000000     825.00000000     826.00000000     826.00000000     826.00000000     826.00000000     827.00000000     827.00000000     827.00000000     827.00000000     828.00000000     828.00000000     828.00000000     828.00000000     827.00000000     827.00000000     827.00000000     827.00000000     827.00000000     827.00000000     827.00000000     827.00000000     827.00000000     829.00000000     829.00000000     829.00000000     829.00000000     831.00000000     831.00000000     831.00000000     831.00000000     833.00000000     833.00000000     833.00000000     833.00000000     835.00000000     835.00000000     835.00000000     835.00000000     837.00000000     837.00000000     837.00000000     837.00000000     837.00000000     839.00000000     839.00000000     839.00000000     839.00000000     841.00000000     841.00000000     841.00000000     841.00000000     842.00000000     842.00000000     842.00000000     842.00000000     844.00000000     844.00000000     844.00000000     847.00000000     847.00000000     850.00000000     856.00000000     860.00000000     861.00000000     866.00000000     842.00000000     809.00000000     819.00000000     840.00000000     886.00000000
         701.00000000     635.00000000     613.00000000     611.00000000     611.00000000     610.00000000     612.00000000     623.00000000     633.00000000     624.00000000     643.00000000     636.00000000     626.00000000     631.00000000     634.00000000     638.00000000     648.00000000     647.00000000     690.00000000     712.00000000     742.00000000     767.00000000     769.00000000     776.00000000     785.00000000     778.00000000     768.00000000     757.00000000     760.00000000     760.00000000     760.00000000     761.00000000     761.00000000     761.00000000     762.00000000     762.00000000     762.00000000     762.00000000     762.00000000     762.00000000     762.00000000     762.00000000     762.00000000     762.00000000     762.00000000     762.00000000     762.00000000     761.00000000     761.00000000     761.00000000     761.00000000     760.00000000     760.00000000     760.00000000     760.00000000     759.00000000     759.00000000     759.00000000     759.00000000     758.00000000     758.00000000     758.00000000     758.00000000     756.00000000     756.00000000     756.00000000     756.00000000     756.00000000     754.00000000     754.00000000     754.00000000     754.00000000     753.00000000     753.00000000     753.00000000     753.00000000     752.00000000     752.00000000     752.00000000     752.00000000     752.00000000     752.00000000     752.00000000     752.00000000     753.00000000     753.00000000     753.00000000     753.00000000     754.00000000     754.00000000     754.00000000     754.00000000     754.00000000     755.00000000     755.00000000     755.00000000     755.00000000     757.00000000     757.00000000     757.00000000     757.00000000     760.00000000     760.00000000     760.00000000     760.00000000     764.00000000     764.00000000     764.00000000     764.00000000     769.00000000     769.00000000     769.00000000     769.00000000     774.00000000     774.00000000     774.00000000     774.00000000     774.00000000     779.00000000     779.00000000     779.00000000     779.00000000     783.00000000     783.00000000     783.00000000     783.00000000     786.00000000     786.00000000     786.00000000     786.00000000     788.00000000     788.00000000     788.00000000     788.00000000     789.00000000     789.00000000     789.00000000     789.00000000     790.00000000     790.00000000     790.00000000     790.00000000     790.00000000     790.00000000     790.00000000     790.00000000     790.00000000     790.00000000     790.00000000     790.00000000     790.00000000     792.00000000     792.00000000     792.00000000     792.00000000     794.00000000     794.00000000     794.00000000     794.00000000     797.00000000     797.00000000     797.00000000     797.00000000     802.00000000     802.00000000     802.00000000     802.00000000     802.00000000     806.00000000     806.00000000     806.00000000     806.00000000     809.00000000     809.00000000     809.00000000     809.00000000     812.00000000     812.00000000     812.00000000     812.00000000     815.00000000     815.00000000     815.00000000     815.00000000     817.00000000     817.00000000     817.00000000     817.00000000     820.00000000     820.00000000     820.00000000     820.00000000     820.00000000     822.00000000     822.00000000     822.00000000     822.00000000     825.00000000     825.00000000     825.00000000     825.00000000     826.00000000     826.00000000     826.00000000     826.00000000     827.00000000     827.00000000     827.00000000     827.00000000     828.00000000     828.00000000     828.00000000     828.00000000     827.00000000     827.00000000     827.00000000     827.00000000     827.00000000     827.00000000     827.00000000     827.00000000     827.00000000     829.00000000     829.00000000     829.00000000     829.00000000     831.00000000     831.00000000     831.00000000     831.00000000     833.00000000     833.00000000     833.00000000     833.00000000     835.00000000     835.00000000     835.00000000     835.00000000     837.00000000     837.00000000     837.00000000     837.00000000     837.00000000     839.00000000     839.00000000     839.00000000     839.00000000     841.00000000     841.00000000     841.00000000     841.00000000     842.00000000     842.00000000     842.00000000     842.00000000     844.00000000     844.00000000     844.00000000     847.00000000     847.00000000     850.00000000     856.00000000     860.00000000     861.00000000     866.00000000     842.00000000     809.00000000     819.00000000     840.00000000     886.00000000
         701.00000000     635.00000000     613.00000000     611.00000000     611.00000000     610.00000000     612.00000000     623.00000000     633.00000000     624.00000000     643.00000000     636.00000000     626.00000000     631.00000000     634.00000000     638.00000000     648.00000000     647.00000000     690.00000000     712.00000000     742.00000000     767.00000000     769.00000000     776.00000000     785.00000000     778.00000000     768.00000000     757.00000000     760.00000000     760.00000000     760.00000000     761.00000000     761.00000000     761.00000000     762.00000000     762.00000000     762.00000000     762.00000000     762.00000000     762.00000000     762.00000000     762.00000000     762.00000000     762.00000000     762.00000000     762.00000000     762.00000000     761.00000000     761.00000000     761.00000000     761.00000000     760.00000000     760.00000000     760.00000000     760.00000000     759.00000000     759.00000000     759.00000000     759.00000000     758.00000000     758.00000000     758.00000000     758.00000000     756.00000000     756.00000000     756.00000000     756.00000000     756.00000000     754.00000000     754.00000000     754.00000000     754.00000000     753.00000000     753.00000000     753.00000000     753.00000000     752.00000000     752.00000000     752.00000000     752.00000000     752.00000000     752.00000000     752.00000000     752.00000000     753.00000000     753.00000000     753.00000000     753.00000000     754.00000000     754.00000000     754.00000000     754.00000000     754.00000000     755.00000000     755.00000000     755.00000000     755.00000000     757.00000000     757.00000000     757.00000000     757.00000000     760.00000000     760.00000000     760.00000000     760.00000000     764.00000000     764.00000000     764.00000000     764.00000000     769.00000000     769.00000000     769.00000000     769.00000000     774.00000000     774.00000000     774.00000000     774.00000000     774.00000000     779.00000000     779.00000000     779.00000000     779.00000000     783.00000000     783.00000000     783.00000000     783.00000000     786.00000000     786.00000000     786.00000000     786.00000000     788.00000000     788.00000000     788.00000000     788.00000000     789.00000000     789.00000000     789.00000000     789.00000000     790.00000000     790.00000000     790.00000000     790.00000000     790.00000000     790.00000000     790.00000000     790.00000000     790.00000000     790.00000000     790.00000000     790.00000000     790.00000000     792.00000000     792.00000000     792.00000000     792.00000000     794.00000000     794.00000000     794.00000000     794.00000000     797.00000000     797.00000000     797.00000000     797.00000000     802.00000000     802.00000000     802.00000000     802.00000000     802.00000000     806.00000000     806.00000000     806.00000000     806.00000000     809.00000000     809.00000000     809.00000000     809.00000000     812.00000000     812.00000000     812.00000000     812.00000000     815.00000000     815.00000000     815.00000000     815.00000000     817.00000000     817.00000000     817.00000000     817.00000000     820.00000000     820.00000000     820.00000000     820.00000000     820.00000000     822.00000000     822.00000000     822.00000000     822.00000000     825.00000000     825.00000000     825.00000000     825.00000000     826.00000000     826.00000000     826.00000000     826.00000000     827.00000000     827.00000000     827.00000000     827.00000000     828.00000000     828.00000000     828.00000000     828.00000000     827.00000000     827.00000000     827.00000000     827.00000000     827.00000000     827.00000000     827.00000000     827.00000000     827.00000000     829.00000000     829.00000000     829.00000000     829.00000000     831.00000000     831.00000000     831.00000000     831.00000000     833.00000000     833.00000000     833.00000000     833.00000000     835.00000000     835.00000000     835.00000000     835.00000000     837.00000000     837.00000000     837.00000000     837.00000000     837.00000000     839.00000000     839.00000000     839.00000000     839.00000000     841.00000000     841.00000000     841.00000000     841.00000000     842.00000000     842.00000000     842.00000000     842.00000000     844.00000000     844.00000000     844.00000000     847.00000000     847.00000000     850.00000000     856.00000000     860.00000000     861.00000000     866.00000000     842.00000000     809.00000000     819.00000000     840.00000000     886.00000000
         701.00000000     635.00000000     613.00000000     611.00000000     611.00000000     610.00000000     612.00000000     623.00000000     633.00000000     624.00000000     643.00000000     636.00000000     626.00000000     631.00000000     634.00000000     638.00000000     648.00000000     647.00000000     690.00000000     712.00000000     742.00000000     767.00000000     769.00000000     776.00000000     785.00000000     778.00000000     768.00000000     757.00000000     760.00000000     760.00000000     760.00000000     761.00000000     761.00000000     761.00000000     762.00000000     762.00000000     762.00000000     762.00000000     762.00000000     762.00000000     762.00000000     762.00000000     762.00000000     762.00000000     762.00000000     762.00000000     762.00000000     761.00000000     761.00000000     761.00000000     761.00000000     760.00000000     760.00000000     760.00000000     760.00000000     759.00000000     759.00000000     759.00000000     759.00000000     758.00000000     758.00000000     758.00000000     758.00000000     756.00000000     756.00000000     756.00000000     756.00000000     756.00000000     754.00000000     754.00000000     754.00000000     754.00000000     753.00000000     753.00000000     753.00000000     753.00000000     752.00000000     752.00000000     752.00000000     752.00000000     752.00000000     752.00000000     752.00000000     752.00000000     753.00000000     753.00000000     753.00000000     753.00000000     754.00000000     754.00000000     754.00000000     754.00000000     754.00000000     755.00000000     755.00000000     755.00000000     755.00000000     757.00000000     757.00000000     757.00000000     757.00000000     760.00000000     760.00000000     760.00000000     760.00000000     764.00000000     764.00000000     764.00000000     764.00000000     769.00000000     769.00000000     769.00000000     769.00000000     774.00000000     774.00000000     774.00000000     774.00000000     774.00000000     779.00000000     779.00000000     779.00000000     779.00000000     783.00000000     783.00000000     783.00000000     783.00000000     786.00000000     786.00000000     786.00000000     786.00000000     788.00000000     788.00000000     788.00000000     788.00000000     789.00000000     789.00000000     789.00000000     789.00000000     790.00000000     790.00000000     790.00000000     790.00000000     790.00000000     790.00000000     790.00000000     790.00000000     790.00000000     790.00000000     790.00000000     790.00000000     790.00000000     792.00000000     792.00000000     792.00000000     792.00000000     794.00000000     794.00000000     794.00000000     794.00000000     797.00000000     797.00000000     797.00000000     797.00000000     802.00000000     802.00000000     802.00000000     802.00000000     802.00000000     806.00000000     806.00000000     806.00000000     806.00000000     809.00000000     809.00000000     809.00000000     809.00000000     812.00000000     812.00000000     812.00000000     812.00000000     815.00000000     815.00000000     815.00000000     815.00000000     817.00000000     817.00000000     817.00000000     817.00000000     820.00000000     820.00000000     820.00000000     820.00000000     820.00000000     822.00000000     822.00000000     822.00000000     822.00000000     825.00000000     825.00000000     825.00000000     825.00000000     826.00000000     826.00000000     826.00000000     826.00000000     827.00000000     827.00000000     827.00000000     827.00000000     828.00000000     828.00000000     828.00000000     828.00000000     827.00000000     827.00000000     827.00000000     827.00000000     827.00000000     827.00000000     827.00000000     827.00000000     827.00000000     829.00000000     829.00000000     829.00000000     829.00000000     831.00000000     831.00000000     831.00000000     831.00000000     833.00000000     833.00000000     833.00000000     833.00000000     835.00000000     835.00000000     835.00000000     835.00000000     837.00000000     837.00000000     837.00000000     837.00000000     837.00000000     839.00000000     839.00000000     839.00000000     839.00000000     841.00000000     841.00000000     841.00000000     841.00000000     842.00000000     842.00000000     842.00000000     842.00000000     844.00000000     844.00000000     844.00000000     847.00000000     847.00000000     850.00000000     856.00000000     860.00000000     861.00000000     866.00000000     842.00000000     809.00000000     819.00000000     840.00000000     886.00000000
         701.00000000     635.00000000     613.00000000     611.00000000     611.00000000     610.00000000     612.00000000     623.00000000     633.00000000     624.00000000     643.00000000     636.00000000     626.00000000     631.00000000     634.00000000     638.00000000     648.00000000     647.00000000     690.00000000     712.00000000     742.00000000     767.00000000     769.00000000     776.00000000     785.00000000     778.00000000     768.00000000     757.00000000     760.00000000     760.00000000     760.00000000     761.00000000     761.00000000     761.00000000     762.00000000     762.00000000     762.00000000     762.00000000     762.00000000     762.00000000     762.00000000     762.00000000     762.00000000     762.00000000     762.00000000     762.00000000     762.00000000     761.00000000     761.00000000     761.00000000     761.00000000     760.00000000     760.00000000     760.00000000     760.00000000     759.00000000     759.00000000     759.00000000     759.00000000     758.00000000     758.00000000     758.00000000     758.00000000     756.00000000     756.00000000     756.00000000     756.00000000     756.00000000     754.00000000     754.00000000     754.00000000     754.00000000     753.00000000     753.00000000     753.00000000     753.00000000     752.00000000     752.00000000     752.00000000     752.00000000     752.00000000     752.00000000     752.00000000     752.00000000     753.00000000     753.00000000     753.00000000     753.00000000     754.00000000     754.00000000     754.00000000     754.00000000     754.00000000     755.00000000     755.00000000     755.00000000     755.00000000     757.00000000     757.00000000     757.00000000     757.00000000     760.00000000     760.00000000     760.00000000     760.00000000     764.00000000     764.00000000     764.00000000     764.00000000     769.00000000     769.00000000     769.00000000     769.00000000     774.00000000     774.00000000     774.00000000     774.00000000     774.00000000     779.00000000     779.00000000     779.00000000     779.00000000     783.00000000     783.00000000     783.00000000     783.00000000     786.00000000     786.00000000     786.00000000     786.00000000     788.00000000     788.00000000     788.00000000     788.00000000     789.00000000     789.00000000     789.00000000     789.00000000     790.00000000     790.00000000     790.00000000     790.00000000     790.00000000     790.00000000     790.00000000     790.00000000     790.00000000     790.00000000     790.00000000     790.00000000     790.00000000     792.00000000     792.00000000     792.00000000     792.00000000     794.00000000     794.00000000     794.00000000     794.00000000     797.00000000     797.00000000     797.00000000     797.00000000     802.00000000     802.00000000     802.00000000     802.00000000     802.00000000     806.00000000     806.00000000     806.00000000     806.00000000     809.00000000     809.00000000     809.00000000     809.00000000     812.00000000     812.00000000     812.00000000     812.00000000     815.00000000     815.00000000     815.00000000     815.00000000     817.00000000     817.00000000     817.00000000     817.00000000     820.00000000     820.00000000     820.00000000     820.00000000     820.00000000     822.00000000     822.00000000     822.00000000     822.00000000     825.00000000     825.00000000     825.00000000     825.00000000     826.00000000     826.00000000     826.00000000     826.00000000     827.00000000     827.00000000     827.00000000     827.00000000     828.00000000     828.00000000     828.00000000     828.00000000     827.00000000     827.00000000     827.00000000     827.00000000     827.00000000     827.00000000     827.00000000     827.00000000     827.00000000     829.00000000     829.00000000     829.00000000     829.00000000     831.00000000     831.00000000     831.00000000     831.00000000     833.00000000     833.00000000     833.00000000     833.00000000     835.00000000     835.00000000     835.00000000     835.00000000     837.00000000     837.00000000     837.00000000     837.00000000     837.00000000     839.00000000     839.00000000     839.00000000     839.00000000     841.00000000     841.00000000     841.00000000     841.00000000     842.00000000     842.00000000     842.00000000     842.00000000     844.00000000     844.00000000     844.00000000     847.00000000     847.00000000     850.00000000     856.00000000     860.00000000     861.00000000     866.00000000     842.00000000     809.00000000     819.00000000     840.00000000     886.00000000