# File generated by Flopy version 3.3.2 on 02/17/2021 at 10:58:54.
BEGIN options
  PRINT_INPUT
  PRINT_FLOWS
  SAVE_FLOWS
END options

BEGIN dimensions
  MAXBOUND  272
END dimensions

BEGIN period  1
  1 1 15     631.00000000
  1 1 16     625.00000000
  1 2 15     629.00000000
  1 2 16     622.00000000
  1 2 17     623.00000000
  1 3 15     630.00000000
  1 3 16     613.26739502
  1 3 17     609.00000000
  1 3 24     616.53912354
  1 3 25     614.96441650
  1 3 26     615.00000000
  1 3 27     615.00000000
  1 3 28     616.98486328
  1 3 29     625.59973145
  1 3 30     644.75091553
  1 4 15     630.00000000
  1 4 17     614.18200684
  1 4 18     609.00000000
  1 4 19     610.96929932
  1 4 20     611.00000000
  1 4 21     611.75335693
  1 4 22     611.43804932
  1 4 23     612.53155518
  1 4 24     613.00000000
  1 4 25     615.18560791
  1 4 26     613.00000000
  1 4 27     615.17938232
  1 4 28     617.00000000
  1 4 29     619.72802734
  1 4 30     617.00000000
  1 4 31     635.74835205
  1 5 14     632.00000000
  1 5 15     608.12622070
  1 5 19     609.94525146
  1 5 20     610.88446045
  1 5 21     611.00000000
  1 5 22     613.30059814
  1 5 31     621.35699463
  1 6 14     623.00000000
  1 6 15     607.10638428
  1 6 31     617.00000000
  1 7 14     622.00000000
  1 7 15     617.00000000
  1 7 31     620.91113281
  1 7 32     639.99114990
  1 8 14     621.00000000
  1 8 15     620.00000000
  1 8 32     630.46234131
  1 9 14     621.00000000
  1 9 15     621.00000000
  1 9 32     624.96844482
  1 10 15     609.00000000
  1 10 16     609.37280273
  1 10 32     621.75714111
  1 11 15     609.00000000
  1 11 16     609.51190186
  1 11 32     623.98284912
  1 12 15     609.09057617
  1 12 16     609.64593506
  1 12 32     625.00000000
  1 12 33     627.68560791
  1 13 16     609.00000000
  1 13 32     629.90148926
  1 13 33     625.00000000
  1 13 34     625.00000000
  1 14 16     609.00000000
  1 14 34     629.00000000
  1 14 35     626.48028564
  1 15 16     609.00000000
  1 15 35     628.63116455
  1 15 36     641.78479004
  1 16 15     609.48217773
  1 16 16     609.00000000
  1 16 35     629.94738770
  1 16 36     633.06506348
  1 17 14     623.00000000
  1 17 15     609.53424072
  1 17 16     610.62133789
  1 17 35     628.51354980
  1 17 36     633.00000000
  1 18 14     624.00000000
  1 18 15     610.35748291
  1 18 16     611.00000000
  1 18 35     629.00000000
  1 18 36     633.00000000
  1 18 42     641.76385498
  1 18 43     643.12207031
  1 18 44     642.66424561
  1 18 45     646.76336670
  1 19 14     624.00000000
  1 19 15     611.00000000
  1 19 16     611.00000000
  1 19 35     635.33453369
  1 19 36     633.00000000
  1 19 37     633.00000000
  1 19 38     633.00000000
  1 19 39     633.00000000
  1 19 40     633.94830322
  1 19 41     633.00000000
  1 19 42     639.00000000
  1 19 45     639.35180664
  1 19 46     639.00000000
  1 20 14     610.98614502
  1 20 15     611.00000000
  1 20 16     611.00000000
  1 20 46     643.21679688
  1 20 47     639.00000000
  1 20 48     645.50543213
  1 21 14     611.17883301
  1 21 15     612.08770752
  1 21 16     613.00000000
  1 21 47     649.00000000
  1 21 48     641.00000000
  1 21 49     642.49279785
  1 22 14     611.64831543
  1 22 15     613.00000000
  1 22 16     613.00000000
  1 22 49     641.14025879
  1 23 14     612.12811279
  1 23 15     613.00000000
  1 23 16     613.25665283
  1 23 49     643.00000000
  1 24 14     612.68310547
  1 24 15     613.02166748
  1 24 16     614.24047852
  1 24 49     644.78741455
  1 25 14     613.06542969
  1 25 15     613.39373779
  1 25 16     614.65527344
  1 25 48     647.91925049
  1 25 49     645.58837891
  1 26 14     613.58514404
  1 26 15     614.35205078
  1 26 16     626.39147949
  1 26 48     650.52496338
  1 26 49     647.00000000
  1 26 50     649.32904053
  1 26 51     648.88922119
  1 27 13     613.94348145
  1 27 14     614.11114502
  1 27 15     614.84460449
  1 27 50     648.52893066
  1 27 51     648.57525635
  1 27 52     649.00000000
  1 27 53     650.24304199
  1 27 54     650.05676270
  1 27 55     651.00000000
  1 27 56     652.13256836
  1 27 57     653.00000000
  1 27 58     656.26422119
  1 27 59     657.86627197
  1 28 13     614.47814941
  1 28 14     614.64581299
  1 28 15     628.24456787
  1 28 58     654.34368896
  1 28 59     654.08673096
  1 28 60     655.00000000
  1 28 61     659.56390381
  1 28 63     663.19824219
  1 28 64     663.13366699
  1 28 65     666.16381836
  1 28 66     684.39758301
  1 29 11     614.67761230
  1 29 12     614.84521484
  1 29 13     615.00000000
  1 29 14     616.30401611
  1 29 60     658.61035156
  1 29 61     655.00000000
  1 29 62     655.70166016
  1 29 63     656.94573975
  1 29 64     659.00000000
  1 29 65     659.32794189
  1 29 66     661.00000000
  1 29 67     682.32043457
  1 30 9     631.00000000
  1 30 10     615.00000000
  1 30 11     615.00000000
  1 30 12     615.00000000
  1 30 13     615.00000000
  1 30 66     666.36462402
  1 30 67     661.27813721
  1 31 8     631.00000000
  1 31 9     615.97698975
  1 31 10     615.00000000
  1 31 11     615.60852051
  1 31 67     661.00000000
  1 31 68     668.08129883
  1 32 6     630.00000000
  1 32 7     630.00000000
  1 32 8     616.65460205
  1 32 67     670.31658936
  1 32 68     665.00000000
  1 33 5     631.00000000
  1 33 6     616.58215332
  1 33 7     617.31695557
  1 33 68     665.59185791
  1 33 69     666.11737061
  1 34 4     636.00000000
  1 34 5     616.81634521
  1 34 6     619.71966553
  1 34 69     665.00000000
  1 34 70     668.72296143
  1 35 3     636.00000000
  1 35 4     617.00000000
  1 35 70     666.25982666
  1 35 71     666.92382812
  1 36 2     636.00000000
  1 36 3     617.70770264
  1 37 2     617.00000000
  1 37 3     623.18719482
  1 38 1     635.00000000
  1 38 2     622.21582031
  1 39 1     618.79296875
  1 40 1     622.67181396
  1 54 72     918.02154541
  1 54 73     914.05889893
  1 54 74     896.87524414
  1 54 75     872.09820557
  1 55 66     916.35986328
  1 55 67     912.29437256
  1 55 68     894.43762207
  1 55 69     905.37969971
  1 55 70     917.60278320
  1 55 71     923.62329102
  1 55 72     924.65631104
  1 55 73     923.34783936
  1 55 74     915.36846924
  1 56 60     878.06567383
  1 56 61     899.47326660
  1 56 62     912.15930176
  1 56 63     914.61535645
  1 56 64     916.51281738
  1 56 65     918.61413574
  1 56 66     920.82037354
  1 56 67     922.60546875
  1 56 68     924.16326904
  1 57 54     864.42071533
  1 57 55     864.24108887
  1 57 56     881.88281250
  1 57 57     876.01965332
  1 57 58     874.00250244
  1 57 59     885.09399414
  1 57 60     901.47113037
  1 57 61     912.00000000
  1 57 62     913.96978760
  1 58 47     877.89160156
  1 58 48     879.92956543
  1 58 49     882.66876221
  1 58 50     882.34100342
  1 58 51     885.38696289
  1 58 52     886.52960205
  1 58 53     888.68414307
  1 58 54     893.36596680
  1 58 55     897.05609131
  1 58 56     900.20062256
  1 59 41     871.68243408
  1 59 42     873.85559082
  1 59 43     875.98132324
  1 59 44     878.51654053
  1 59 45     880.72888184
  1 59 46     881.83953857
  1 59 47     883.87359619
  1 59 48     886.14916992
  1 59 49     887.89508057
  1 59 50     890.46099854
  1 60 38     867.85705566
  1 60 39     869.44567871
  1 60 40     870.79486084
  1 60 41     872.67181396
  1 60 42     874.64782715
  1 60 43     877.36608887
  1 60 44     879.95764160
END period  1

