# File generated by Flopy version 3.3.4 on 11/27/2021 at 21:53:52.
BEGIN options
  auxiliary  rain_mult
  AUXMULTNAME  rain_mult
  PRINT_INPUT
  PRINT_FLOWS
  SAVE_FLOWS
  TS6  FILEIN  modelo_Norte.rch.ts
END options

BEGIN dimensions
  MAXBOUND  360
END dimensions

BEGIN period  1
    OPEN/CLOSE  'rch_0.txt'
END period  1

BEGIN period  2
    OPEN/CLOSE  'rch_1.txt'
END period  2

