# File generated by Flopy version 3.3.2 on 08/24/2021 at 15:10:50.
BEGIN options
  PRINT_INPUT
  PRINT_FLOWS
  SAVE_FLOWS
END options

BEGIN dimensions
  MAXBOUND  9
END dimensions

BEGIN period  1
  1 15 16     748.00000000       0.00418832
  2 15 17     748.12344152       0.02735894
  3 15 18     748.92978657       0.02735894
  3 15 19     749.73613163       0.02735894
  3 15 20     750.54247669       0.01307392
  3 14 20     750.92780200       0.01428502
  3 14 21     751.34882174       0.02735894
  4 14 22     752.15516680       0.02735894
  4 14 23     752.96151186       0.00978828
END period  1

