# File generated by Flopy version 3.3.2 on 08/20/2021 at 09:34:03.
BEGIN options
  COMPLEXITY  complex
END options

