# File generated by Flopy version 3.3.2 on 08/19/2021 at 20:23:50.
BEGIN options
  COMPLEXITY  complex
END options

