# File generated by Flopy version 3.3.2 on 08/11/2021 at 07:56:08.
BEGIN options
  TIME_UNITS  seconds
END options

BEGIN dimensions
  NPER  3
END dimensions

BEGIN perioddata
       1.00000000  1       1.00000000
  3.15360000E+07  365       1.00000000
  3.15360000E+07  365       1.00000000
END perioddata

