# File generated by Flopy version 3.3.4 on 08/28/2021 at 11:37:42.
BEGIN options
  PRINT_INPUT
  PRINT_FLOWS
  SAVE_FLOWS
END options

BEGIN dimensions
  MAXBOUND  191
END dimensions

BEGIN period  1
  1 1 13     626.00000000
  1 2 12     645.00000000
  1 2 13     626.00000000
  1 2 14     624.00000000
  1 3 12     645.00000000
  1 3 13     627.00000000
  1 3 14     609.00000000
  1 3 15     609.67694092
  1 3 20     616.53912354
  1 3 21     614.85626221
  1 3 22     615.00000000
  1 3 23     615.41851807
  1 3 24     621.66961670
  1 3 25     644.75091553
  1 4 12     638.00000000
  1 4 13     622.43725586
  1 4 14     620.91632080
  1 4 15     609.00000000
  1 4 16     611.00000000
  1 4 17     611.12078857
  1 4 18     611.75238037
  1 4 19     611.14495850
  1 4 20     613.00000000
  1 4 21     614.99584961
  1 4 22     613.00000000
  1 4 23     615.45898438
  1 4 24     617.78753662
  1 4 25     617.00000000
  1 4 26     644.85351562
  1 5 12     624.00000000
  1 5 13     610.35168457
  1 5 16     612.42590332
  1 5 17     611.48760986
  1 5 18     613.22180176
  1 5 26     621.78674316
  1 6 12     620.00000000
  1 6 26     620.11291504
  1 7 12     621.00000000
  1 7 26     619.04681396
  1 8 12     621.00000000
  1 8 13     609.00000000
  1 8 26     623.75683594
  1 8 27     633.49621582
  1 9 12     621.00000000
  1 9 13     609.00000000
  1 9 26     626.70654297
  1 9 27     625.56683350
  1 10 13     609.00000000
  1 10 26     631.36199951
  1 10 27     625.37805176
  1 11 13     609.00000000
  1 11 14     611.00000000
  1 11 27     625.00000000
  1 11 28     625.07733154
  1 11 29     653.88287354
  1 12 13     609.00000000
  1 12 14     613.00000000
  1 12 28     629.00000000
  1 12 29     625.00000000
  1 13 13     609.00000000
  1 13 14     613.00000000
  1 13 29     629.00000000
  1 13 30     641.78479004
  1 14 13     609.00000000
  1 14 14     613.00000000
  1 14 29     631.46801758
  1 14 30     633.06506348
  1 15 12     623.00000000
  1 15 13     610.31860352
  1 15 14     614.64855957
  1 15 29     629.00000000
  1 15 30     633.00000000
  1 16 12     610.64294434
  1 16 13     611.00000000
  1 16 14     618.17651367
  1 16 29     635.20910645
  1 16 30     632.95953369
  1 16 31     633.28820801
  1 16 32     633.99743652
  1 16 33     636.16375732
  1 16 34     641.00000000
  1 16 35     639.00000000
  1 16 36     639.00000000
  1 16 37     639.00848389
  1 16 38     639.00000000
  1 17 12     610.98291016
  1 17 13     611.00000000
  1 17 14     621.22546387
  1 17 31     635.71740723
  1 17 32     635.68511963
  1 17 33     634.01721191
  1 17 34     637.21813965
  1 17 38     640.62109375
  1 17 39     639.00000000
  1 17 40     646.83007812
  1 18 12     611.32397461
  1 18 13     612.61138916
  1 18 14     613.00000000
  1 18 39     649.00000000
  1 18 40     641.00000000
  1 18 41     663.85345459
  1 19 12     611.87896729
  1 19 13     613.00000000
  1 19 14     613.00000000
  1 19 41     653.47943115
  1 20 12     612.65594482
  1 20 13     613.11694336
  1 20 14     614.53125000
  1 20 41     649.07000732
  1 21 12     613.00000000
  1 21 13     613.53417969
  1 21 40     648.17608643
  1 21 41     647.20782471
  1 22 12     613.62738037
  1 22 13     614.51507568
  1 22 40     649.87353516
  1 22 41     648.53356934
  1 22 42     650.67449951
  1 22 43     649.00000000
  1 23 11     613.97705078
  1 23 12     614.21209717
  1 23 13     623.73638916
  1 23 42     648.54302979
  1 23 43     648.57525635
  1 23 44     649.00000000
  1 23 45     649.88159180
  1 23 46     649.81335449
  1 23 47     650.78289795
  1 23 48     651.00000000
  1 23 49     652.04144287
  1 23 50     653.00000000
  1 23 51     653.00000000
  1 23 52     656.58209229
  1 23 53     657.86627197
  1 24 10     614.31054688
  1 24 11     614.51171875
  1 24 12     614.71704102
  1 24 13     631.02233887
  1 24 52     654.11328125
  1 24 53     654.08673096
  1 24 54     655.00000000
  1 24 55     658.82159424
  1 24 56     659.80456543
  1 24 58     663.20013428
  1 24 59     663.29003906
  1 24 60     671.51153564
  1 25 9     614.85791016
  1 25 10     615.00000000
  1 25 11     615.00000000
  1 25 12     636.83923340
  1 25 55     669.56420898
  1 25 56     655.00000000
  1 25 57     655.00000000
  1 25 58     657.00000000
  1 25 59     660.40655518
  1 25 60     663.56060791
  1 25 61     666.26513672
  1 26 7     631.00000000
  1 26 8     615.23748779
  1 26 9     615.00000000
  1 26 10     615.00000000
  1 26 11     631.41772461
  1 26 61     661.00000000
  1 26 62     670.67968750
  1 27 5     630.00000000
  1 27 6     630.00000000
  1 27 7     616.53112793
  1 27 8     618.05303955
  1 27 61     670.93957520
  1 27 62     665.00000000
  1 28 4     630.00000000
  1 28 5     616.58215332
  1 28 6     617.20361328
  1 28 62     665.59185791
  1 28 63     668.25720215
  1 29 3     637.00000000
  1 29 4     616.70983887
  1 29 5     619.71966553
  1 29 63     665.00000000
  1 29 64     670.48632812
  1 30 2     636.00000000
  1 30 3     621.00000000
  1 30 4     622.57592773
  1 30 64     669.14031982
  1 30 65     666.40301514
  1 31 2     617.00000000
  1 31 3     623.00000000
  1 32 1     617.34545898
  1 32 2     622.55981445
  1 33 1     621.96197510
  1 34 1     623.00000000
END period  1

