# File generated by Flopy version 3.3.2 on 05/05/2021 at 09:55:08.
BEGIN options
  COMPLEXITY  simple
END options

