# File generated by Flopy version 3.3.2 on 05/30/2021 at 16:52:00.
BEGIN options
  PRINT_INPUT
  PRINT_FLOWS
  SAVE_FLOWS
END options

BEGIN dimensions
  MAXBOUND  34
END dimensions

BEGIN period  1
  1 32 41     970.88415527  5.00000000E-06
  1 32 42     947.53015137  5.00000000E-06
  1 32 43     976.62890625  5.00000000E-06
  1 32 44     981.26110840  5.00000000E-06
  1 33 30     912.58471680  5.00000000E-06
  1 33 31     911.78369141  5.00000000E-06
  1 33 32     923.53015137  5.00000000E-06
  1 33 33     930.17462158  5.00000000E-06
  1 33 34     923.51507568  5.00000000E-06
  1 33 35     930.66503906  5.00000000E-06
  1 33 36     943.51208496  5.00000000E-06
  1 33 37     963.26806641  5.00000000E-06
  1 33 38     972.63128662  5.00000000E-06
  1 33 39     975.53265381  5.00000000E-06
  1 33 40     979.45568848  5.00000000E-06
  1 33 41     984.06658936  5.00000000E-06
  1 33 42     987.17633057  5.00000000E-06
  1 34 21     932.40313721  5.00000000E-06
  1 34 22     936.53326416  5.00000000E-06
  1 34 23     940.00000000  5.00000000E-06
  1 34 24     943.10375977  5.00000000E-06
  1 34 25     945.79632568  5.00000000E-06
  1 34 26     947.79986572  5.00000000E-06
  1 34 27     950.57568359  5.00000000E-06
  1 34 28     952.38500977  5.00000000E-06
  1 34 29     953.88574219  5.00000000E-06
  1 34 30     957.08740234  5.00000000E-06
  1 34 31     958.79327393  5.00000000E-06
  1 34 32     961.22882080  5.00000000E-06
  1 34 33     962.82171631  5.00000000E-06
  1 35 19     927.46704102  5.00000000E-06
  1 35 20     930.73571777  5.00000000E-06
  1 35 21     933.93835449  5.00000000E-06
  1 35 22     939.03143311  5.00000000E-06
END period  1

