# File generated by Flopy version 3.3.2 on 08/10/2021 at 12:26:43.
BEGIN options
  PRINT_INPUT
  PRINT_FLOWS
  SAVE_FLOWS
END options

BEGIN dimensions
  MAXBOUND  163
END dimensions

BEGIN period  1
  1 16 22     823.51281738       0.06400000
  1 19 18     835.00000000       0.14400000
  1 19 27     960.69134521       0.32400000
  1 18 13     823.26422119       0.14400000
  1 6 11     635.58886719       0.32400000
  1 13 26     743.04980469       0.14400000
  1 10 18     700.12359619       0.14400000
  1 12 15     729.25708008       0.09600000
  1 16 6     745.55645752       0.14400000
  1 14 18     779.82415771       0.06400000
  1 16 15     792.33746338       0.06400000
  1 7 12     655.22644043       0.32400000
  1 19 11     870.32342529       0.32400000
  1 18 6     749.12573242       0.21600000
  1 13 19     772.26300049       0.06400000
  1 15 16     755.55993652       0.06400000
  1 18 15     823.96875000       0.09600000
  1 9 12     703.34918213       0.32400000
  1 6 13     646.76336670       0.21600000
  1 12 8     740.69042969       0.21600000
  1 3 5     609.48382568       0.32400000
  1 14 2     639.00000000       0.14400000
  1 17 7     816.18145752       0.14400000
  1 11 21     771.18939209       0.14400000
  1 14 20     792.01464844       0.06400000
  1 16 17     778.45068359       0.06400000
  1 16 26     779.00000000       0.14400000
  1 6 6     632.73828125       0.32400000
  1 18 8     856.61859131       0.21600000
  1 12 1     625.06140137       0.21600000
  1 18 17     823.00000000       0.09600000
  1 10 22     732.99615479       0.14400000
  1 14 4     713.70837402       0.14400000
  1 7 7     663.55267334       0.32400000
  1 19 6     774.23754883       0.32400000
  1 11 23     787.49395752       0.14400000
  1 17 18     796.44696045       0.06400000
  1 8 15     645.00000000       0.14400000
  1 21 9     871.12158203       0.32400000
  1 15 2     669.25451660       0.14400000
  1 6 8     698.34155273       0.32400000
  1 20 7     776.67224121       0.32400000
  1 15 20     796.37231445       0.06400000
  1 12 3     639.00000000       0.21600000
  1 10 15     693.28082275       0.14400000
  1 14 6     719.37219238       0.14400000
  1 16 3     661.90319824       0.14400000
  1 11 16     728.84613037       0.14400000
  1 16 12     808.31231689       0.14400000
  1 8 8     719.71716309       0.32400000
  1 19 8     825.28558350       0.32400000
  1 11 25     735.00122070       0.21600000
  1 19 17     834.76013184       0.14400000
  1 13 7     747.11041260       0.14400000
  1 15 4     696.55957031       0.14400000
  1 13 16     739.21478271       0.06400000
  1 6 10     629.00000000       0.32400000
  1 10 8     710.83819580       0.32400000
  1 12 5     702.81542969       0.21600000
  1 15 22     817.07379150       0.06400000
  1 13 25     774.23406982       0.09600000
  1 10 17     697.00000000       0.14400000
  1 16 5     704.13549805       0.14400000
  1 9 21     692.35961914       0.14400000
  1 11 18     701.27301025       0.14400000
  1 14 17     777.31030273       0.06400000
  1 17 4     681.00000000       0.14400000
  1 8 10     714.92309570       0.32400000
  1 11 27     665.85595703       0.32400000
  1 12 26     702.11523438       0.21600000
  1 13 9     777.00000000       0.14400000
  1 15 6     726.87689209       0.14400000
  1 18 5     702.85656738       0.21600000
  1 6 12     641.76385498       0.32400000
  1 13 27     741.11425781       0.14400000
  1 9 14     674.60852051       0.14400000
  1 18 26     837.95727539       0.21600000
  1 9 23     655.00000000       0.14400000
  1 11 20     749.04949951       0.14400000
  1 14 19     786.25079346       0.06400000
  1 17 15     773.82342529       0.06400000
  1 8 12     679.90515137       0.32400000
  1 13 2     642.82385254       0.14400000
  1 10 3     621.00000000       0.32400000
  1 15 26     775.36688232       0.14400000
  1 9 7     662.63226318       0.32400000
  1 9 16     670.96929932       0.14400000
  1 11 13     737.40264893       0.21600000
  1 14 12     785.96527100       0.14400000
  1 12 12     762.08892822       0.21600000
  1 9 25     659.32794189       0.21600000
  1 19 5     732.56481934       0.32400000
  1 10 24     752.48571777       0.14400000
  1 17 17     780.98413086       0.06400000
  1 21 8     867.08959961       0.32400000
  1 6 7     649.07989502       0.32400000
  1 19 26     903.54211426       0.32400000
  1 15 19     790.75347900       0.06400000
  1 20 9     911.00000000       0.32400000
  1 14 5     730.59332275       0.14400000
  1 11 24     781.31744385       0.14400000
  1 10 26     665.00000000       0.32400000
  1 7 11     665.37438965       0.32400000
  1 21 10     921.67498779       0.32400000
  1 14 26     771.76031494       0.14400000
  1 15 3     661.66424561       0.14400000
  1 13 15     746.37628174       0.06400000
  1 15 12     791.00000000       0.14400000
  1 18 14     819.37908936       0.09600000
  1 11 8     725.81610107       0.32400000
  1 2 5     613.96862793       0.32400000
  1 17 3     685.21325684       0.14400000
  1 11 17     726.91882324       0.14400000
  1 12 16     738.51782227       0.09600000
  1 11 26     689.30590820       0.32400000
  1 16 16     760.39379883       0.06400000
  1 7 13     650.72454834       0.21600000
  1 13 8     755.50317383       0.14400000
  1 15 5     691.92224121       0.14400000
  1 13 17     763.00000000       0.06400000
  1 18 7     817.69366455       0.21600000
  1 10 12     730.67321777       0.32400000
  1 17 5     742.25073242       0.14400000
  1 11 19     727.46447754       0.14400000
  1 12 27     696.42535400       0.21600000
  1 7 6     645.38696289       0.32400000
  1 16 18     791.78924561       0.06400000
  1 13 1     627.00000000       0.14400000
  1 17 26     804.28369141       0.14400000
  1 5 6     622.18878174       0.32400000
  1 18 9     893.00000000       0.21600000
  1 20 6     804.35406494       0.32400000
  1 11 3     621.00000000       0.32400000
  1 18 18     808.74530029       0.09600000
  1 9 15     660.83160400       0.14400000
  1 11 12     748.82012939       0.32400000
  1 10 14     695.88940430       0.14400000
  1 9 24     656.94573975       0.14400000
  1 10 23     748.87878418       0.14400000
  1 7 8     694.93780518       0.32400000
  1 8 7     659.00000000       0.32400000
  1 19 7     790.13439941       0.32400000
  1 17 19     801.00000000       0.06400000
  1 8 16     652.62451172       0.14400000
  1 13 12     779.39086914       0.14400000
  1 19 25     944.12292480       0.21600000
  1 6 9     704.75842285       0.32400000
  1 9 8     705.20220947       0.32400000
  1 20 8     840.65051270       0.32400000
  1 10 7     709.36175537       0.32400000
  1 12 4     675.42047119       0.21600000
  1 18 11     843.46661377       0.21600000
  1 15 21     808.93200684       0.06400000
  1 11 14     724.92523193       0.14400000
  1 10 16     685.38116455       0.14400000
  1 20 26     985.16326904       0.32400000
  1 10 25     723.72381592       0.21600000
  1 14 7     745.29071045       0.14400000
  1 16 4     670.20434570       0.14400000
  1 14 16     743.00000000       0.06400000
  1 7 10     701.00000000       0.32400000
  1 17 12     825.67169189       0.14400000
  1 8 9     743.00000000       0.32400000
END period  1

