# File generated by Flopy version 3.3.6 on 08/05/2022 at 21:27:00.
BEGIN options
  BOUNDNAMES
  PRINT_FLOWS
  SAVE_FLOWS
  OBS6  FILEIN  modelo_Norte_gal.drn.obs
END options

BEGIN dimensions
  MAXBOUND  197
END dimensions

BEGIN period  1187
  1 94 71     748.00000000  5.76675580E-06  gal_flow
END period  1187

BEGIN period  1188
  1 94 71     748.00000000  5.76675580E-06  gal_flow
  1 94 72     748.00768691  2.26846566E-05  gal_flow
END period  1188

BEGIN period  1190
  1 94 71     748.00000000  5.76675580E-06  gal_flow
  1 94 72     748.00768691  2.26846566E-05  gal_flow
  1 94 73     748.03792485  2.26846566E-05  gal_flow
END period  1190

BEGIN period  1191
  1 94 71     748.00000000  5.76675580E-06  gal_flow
  1 94 72     748.00768691  2.26846566E-05  gal_flow
  1 94 73     748.03792485  2.26846566E-05  gal_flow
  1 94 74     748.06816278  2.26846566E-05  gal_flow
END period  1191

BEGIN period  1192
  1 94 71     748.00000000  5.76675580E-06  gal_flow
  1 94 72     748.00768691  2.26846566E-05  gal_flow
  1 94 73     748.03792485  2.26846566E-05  gal_flow
  1 94 74     748.06816278  2.26846566E-05  gal_flow
  1 94 75     748.09840072  2.26846566E-05  gal_flow
END period  1192

BEGIN period  1194
  1 94 71     748.00000000  5.76675580E-06  gal_flow
  1 94 72     748.00768691  2.26846566E-05  gal_flow
  1 94 73     748.03792485  2.26846566E-05  gal_flow
  1 94 74     748.06816278  2.26846566E-05  gal_flow
  1 94 75     748.09840072  2.26846566E-05  gal_flow
  1 94 76     748.12863866  2.26846566E-05  gal_flow
  1 94 77     748.15887660  1.09964332E-05  gal_flow
END period  1194

BEGIN period  1195
  1 94 71     748.00000000  5.76675580E-06  gal_flow
  1 94 72     748.00768691  2.26846566E-05  gal_flow
  1 94 73     748.03792485  2.26846566E-05  gal_flow
  1 94 74     748.06816278  2.26846566E-05  gal_flow
  1 94 75     748.09840072  2.26846566E-05  gal_flow
  1 94 76     748.12863866  2.26846566E-05  gal_flow
  1 94 77     748.15887660  1.09964332E-05  gal_flow
  1 93 77     748.17353451  1.16882234E-05  gal_flow
END period  1195

BEGIN period  1196
  1 94 71     748.00000000  5.76675580E-06  gal_flow
  1 94 72     748.00768691  2.26846566E-05  gal_flow
  1 94 73     748.03792485  2.26846566E-05  gal_flow
  1 94 74     748.06816278  2.26846566E-05  gal_flow
  1 94 75     748.09840072  2.26846566E-05  gal_flow
  1 94 76     748.12863866  2.26846566E-05  gal_flow
  1 94 77     748.15887660  1.09964332E-05  gal_flow
  1 93 77     748.17353451  1.16882234E-05  gal_flow
  1 93 78     748.18911454  2.26846566E-05  gal_flow
END period  1196

BEGIN period  1198
  1 94 71     748.00000000  5.76675580E-06  gal_flow
  1 94 72     748.00768691  2.26846566E-05  gal_flow
  1 94 73     748.03792485  2.26846566E-05  gal_flow
  1 94 74     748.06816278  2.26846566E-05  gal_flow
  1 94 75     748.09840072  2.26846566E-05  gal_flow
  1 94 76     748.12863866  2.26846566E-05  gal_flow
  1 94 77     748.15887660  1.09964332E-05  gal_flow
  1 93 77     748.17353451  1.16882234E-05  gal_flow
  1 93 78     748.18911454  2.26846566E-05  gal_flow
  1 93 79     748.21935248  2.26846566E-05  gal_flow
END period  1198

BEGIN period  1199
  1 94 71     748.00000000  5.76675580E-06  gal_flow
  1 94 72     748.00768691  2.26846566E-05  gal_flow
  1 94 73     748.03792485  2.26846566E-05  gal_flow
  1 94 74     748.06816278  2.26846566E-05  gal_flow
  1 94 75     748.09840072  2.26846566E-05  gal_flow
  1 94 76     748.12863866  2.26846566E-05  gal_flow
  1 94 77     748.15887660  1.09964332E-05  gal_flow
  1 93 77     748.17353451  1.16882234E-05  gal_flow
  1 93 78     748.18911454  2.26846566E-05  gal_flow
  1 93 79     748.21935248  2.26846566E-05  gal_flow
  1 93 80     748.24959042  2.26846566E-05  gal_flow
END period  1199

BEGIN period  1201
  1 94 71     748.00000000  5.76675580E-06  gal_flow
  1 94 72     748.00768691  2.26846566E-05  gal_flow
  1 94 73     748.03792485  2.26846566E-05  gal_flow
  1 94 74     748.06816278  2.26846566E-05  gal_flow
  1 94 75     748.09840072  2.26846566E-05  gal_flow
  1 94 76     748.12863866  2.26846566E-05  gal_flow
  1 94 77     748.15887660  1.09964332E-05  gal_flow
  1 93 77     748.17353451  1.16882234E-05  gal_flow
  1 93 78     748.18911454  2.26846566E-05  gal_flow
  1 93 79     748.21935248  2.26846566E-05  gal_flow
  1 93 80     748.24959042  2.26846566E-05  gal_flow
  1 93 81     748.27982836  2.26846566E-05  gal_flow
END period  1201

BEGIN period  1202
  1 94 71     748.00000000  5.76675580E-06  gal_flow
  1 94 72     748.00768691  2.26846566E-05  gal_flow
  1 94 73     748.03792485  2.26846566E-05  gal_flow
  1 94 74     748.06816278  2.26846566E-05  gal_flow
  1 94 75     748.09840072  2.26846566E-05  gal_flow
  1 94 76     748.12863866  2.26846566E-05  gal_flow
  1 94 77     748.15887660  1.09964332E-05  gal_flow
  1 93 77     748.17353451  1.16882234E-05  gal_flow
  1 93 78     748.18911454  2.26846566E-05  gal_flow
  1 93 79     748.21935248  2.26846566E-05  gal_flow
  1 93 80     748.24959042  2.26846566E-05  gal_flow
  1 93 81     748.27982836  2.26846566E-05  gal_flow
  1 93 82     748.31006630  2.26846566E-05  gal_flow
END period  1202

BEGIN period  1203
  1 94 71     748.00000000  5.76675580E-06  gal_flow
  1 94 72     748.00768691  2.26846566E-05  gal_flow
  1 94 73     748.03792485  2.26846566E-05  gal_flow
  1 94 74     748.06816278  2.26846566E-05  gal_flow
  1 94 75     748.09840072  2.26846566E-05  gal_flow
  1 94 76     748.12863866  2.26846566E-05  gal_flow
  1 94 77     748.15887660  1.09964332E-05  gal_flow
  1 93 77     748.17353451  1.16882234E-05  gal_flow
  1 93 78     748.18911454  2.26846566E-05  gal_flow
  1 93 79     748.21935248  2.26846566E-05  gal_flow
  1 93 80     748.24959042  2.26846566E-05  gal_flow
  1 93 81     748.27982836  2.26846566E-05  gal_flow
  1 93 82     748.31006630  2.26846566E-05  gal_flow
  2 93 83     748.34030424  2.26846566E-05  gal_flow
END period  1203

BEGIN period  1205
  1 94 71     748.00000000  5.76675580E-06  gal_flow
  1 94 72     748.00768691  2.26846566E-05  gal_flow
  1 94 73     748.03792485  2.26846566E-05  gal_flow
  1 94 74     748.06816278  2.26846566E-05  gal_flow
  1 94 75     748.09840072  2.26846566E-05  gal_flow
  1 94 76     748.12863866  2.26846566E-05  gal_flow
  1 94 77     748.15887660  1.09964332E-05  gal_flow
  1 93 77     748.17353451  1.16882234E-05  gal_flow
  1 93 78     748.18911454  2.26846566E-05  gal_flow
  1 93 79     748.21935248  2.26846566E-05  gal_flow
  1 93 80     748.24959042  2.26846566E-05  gal_flow
  1 93 81     748.27982836  2.26846566E-05  gal_flow
  1 93 82     748.31006630  2.26846566E-05  gal_flow
  2 93 83     748.34030424  2.26846566E-05  gal_flow
  2 93 84     748.37054218  2.26846566E-05  gal_flow
  2 93 85     748.40078012  9.27585495E-06  gal_flow
END period  1205

BEGIN period  1206
  1 94 71     748.00000000  5.76675580E-06  gal_flow
  1 94 72     748.00768691  2.26846566E-05  gal_flow
  1 94 73     748.03792485  2.26846566E-05  gal_flow
  1 94 74     748.06816278  2.26846566E-05  gal_flow
  1 94 75     748.09840072  2.26846566E-05  gal_flow
  1 94 76     748.12863866  2.26846566E-05  gal_flow
  1 94 77     748.15887660  1.09964332E-05  gal_flow
  1 93 77     748.17353451  1.16882234E-05  gal_flow
  1 93 78     748.18911454  2.26846566E-05  gal_flow
  1 93 79     748.21935248  2.26846566E-05  gal_flow
  1 93 80     748.24959042  2.26846566E-05  gal_flow
  1 93 81     748.27982836  2.26846566E-05  gal_flow
  1 93 82     748.31006630  2.26846566E-05  gal_flow
  2 93 83     748.34030424  2.26846566E-05  gal_flow
  2 93 84     748.37054218  2.26846566E-05  gal_flow
  2 93 85     748.40078012  9.27585495E-06  gal_flow
  2 92 85     748.41314455  1.34088017E-05  gal_flow
END period  1206

BEGIN period  1207
  1 94 71     748.00000000  5.76675580E-06  gal_flow
  1 94 72     748.00768691  2.26846566E-05  gal_flow
  1 94 73     748.03792485  2.26846566E-05  gal_flow
  1 94 74     748.06816278  2.26846566E-05  gal_flow
  1 94 75     748.09840072  2.26846566E-05  gal_flow
  1 94 76     748.12863866  2.26846566E-05  gal_flow
  1 94 77     748.15887660  1.09964332E-05  gal_flow
  1 93 77     748.17353451  1.16882234E-05  gal_flow
  1 93 78     748.18911454  2.26846566E-05  gal_flow
  1 93 79     748.21935248  2.26846566E-05  gal_flow
  1 93 80     748.24959042  2.26846566E-05  gal_flow
  1 93 81     748.27982836  2.26846566E-05  gal_flow
  1 93 82     748.31006630  2.26846566E-05  gal_flow
  2 93 83     748.34030424  2.26846566E-05  gal_flow
  2 93 84     748.37054218  2.26846566E-05  gal_flow
  2 93 85     748.40078012  9.27585495E-06  gal_flow
  2 92 85     748.41314455  1.34088017E-05  gal_flow
  2 92 86     748.43101806  2.26846566E-05  gal_flow
END period  1207

BEGIN period  1209
  1 94 71     748.00000000  5.76675580E-06  gal_flow
  1 94 72     748.00768691  2.26846566E-05  gal_flow
  1 94 73     748.03792485  2.26846566E-05  gal_flow
  1 94 74     748.06816278  2.26846566E-05  gal_flow
  1 94 75     748.09840072  2.26846566E-05  gal_flow
  1 94 76     748.12863866  2.26846566E-05  gal_flow
  1 94 77     748.15887660  1.09964332E-05  gal_flow
  1 93 77     748.17353451  1.16882234E-05  gal_flow
  1 93 78     748.18911454  2.26846566E-05  gal_flow
  1 93 79     748.21935248  2.26846566E-05  gal_flow
  1 93 80     748.24959042  2.26846566E-05  gal_flow
  1 93 81     748.27982836  2.26846566E-05  gal_flow
  1 93 82     748.31006630  2.26846566E-05  gal_flow
  2 93 83     748.34030424  2.26846566E-05  gal_flow
  2 93 84     748.37054218  2.26846566E-05  gal_flow
  2 93 85     748.40078012  9.27585495E-06  gal_flow
  2 92 85     748.41314455  1.34088017E-05  gal_flow
  2 92 86     748.43101806  2.26846566E-05  gal_flow
  2 92 87     748.46125600  2.26846566E-05  gal_flow
END period  1209

BEGIN period  1210
  1 94 71     748.00000000  5.76675580E-06  gal_flow
  1 94 72     748.00768691  2.26846566E-05  gal_flow
  1 94 73     748.03792485  2.26846566E-05  gal_flow
  1 94 74     748.06816278  2.26846566E-05  gal_flow
  1 94 75     748.09840072  2.26846566E-05  gal_flow
  1 94 76     748.12863866  2.26846566E-05  gal_flow
  1 94 77     748.15887660  1.09964332E-05  gal_flow
  1 93 77     748.17353451  1.16882234E-05  gal_flow
  1 93 78     748.18911454  2.26846566E-05  gal_flow
  1 93 79     748.21935248  2.26846566E-05  gal_flow
  1 93 80     748.24959042  2.26846566E-05  gal_flow
  1 93 81     748.27982836  2.26846566E-05  gal_flow
  1 93 82     748.31006630  2.26846566E-05  gal_flow
  2 93 83     748.34030424  2.26846566E-05  gal_flow
  2 93 84     748.37054218  2.26846566E-05  gal_flow
  2 93 85     748.40078012  9.27585495E-06  gal_flow
  2 92 85     748.41314455  1.34088017E-05  gal_flow
  2 92 86     748.43101806  2.26846566E-05  gal_flow
  2 92 87     748.46125600  2.26846566E-05  gal_flow
  2 92 88     748.49149394  2.26846566E-05  gal_flow
END period  1210

BEGIN period  1212
  1 94 71     748.00000000  5.76675580E-06  gal_flow
  1 94 72     748.00768691  2.26846566E-05  gal_flow
  1 94 73     748.03792485  2.26846566E-05  gal_flow
  1 94 74     748.06816278  2.26846566E-05  gal_flow
  1 94 75     748.09840072  2.26846566E-05  gal_flow
  1 94 76     748.12863866  2.26846566E-05  gal_flow
  1 94 77     748.15887660  1.09964332E-05  gal_flow
  1 93 77     748.17353451  1.16882234E-05  gal_flow
  1 93 78     748.18911454  2.26846566E-05  gal_flow
  1 93 79     748.21935248  2.26846566E-05  gal_flow
  1 93 80     748.24959042  2.26846566E-05  gal_flow
  1 93 81     748.27982836  2.26846566E-05  gal_flow
  1 93 82     748.31006630  2.26846566E-05  gal_flow
  2 93 83     748.34030424  2.26846566E-05  gal_flow
  2 93 84     748.37054218  2.26846566E-05  gal_flow
  2 93 85     748.40078012  9.27585495E-06  gal_flow
  2 92 85     748.41314455  1.34088017E-05  gal_flow
  2 92 86     748.43101806  2.26846566E-05  gal_flow
  2 92 87     748.46125600  2.26846566E-05  gal_flow
  2 92 88     748.49149394  2.26846566E-05  gal_flow
  2 92 89     748.52173188  2.26846566E-05  gal_flow
END period  1212

BEGIN period  1213
  1 94 71     748.00000000  5.76675580E-06  gal_flow
  1 94 72     748.00768691  2.26846566E-05  gal_flow
  1 94 73     748.03792485  2.26846566E-05  gal_flow
  1 94 74     748.06816278  2.26846566E-05  gal_flow
  1 94 75     748.09840072  2.26846566E-05  gal_flow
  1 94 76     748.12863866  2.26846566E-05  gal_flow
  1 94 77     748.15887660  1.09964332E-05  gal_flow
  1 93 77     748.17353451  1.16882234E-05  gal_flow
  1 93 78     748.18911454  2.26846566E-05  gal_flow
  1 93 79     748.21935248  2.26846566E-05  gal_flow
  1 93 80     748.24959042  2.26846566E-05  gal_flow
  1 93 81     748.27982836  2.26846566E-05  gal_flow
  1 93 82     748.31006630  2.26846566E-05  gal_flow
  2 93 83     748.34030424  2.26846566E-05  gal_flow
  2 93 84     748.37054218  2.26846566E-05  gal_flow
  2 93 85     748.40078012  9.27585495E-06  gal_flow
  2 92 85     748.41314455  1.34088017E-05  gal_flow
  2 92 86     748.43101806  2.26846566E-05  gal_flow
  2 92 87     748.46125600  2.26846566E-05  gal_flow
  2 92 88     748.49149394  2.26846566E-05  gal_flow
  2 92 89     748.52173188  2.26846566E-05  gal_flow
  2 92 90     748.55196982  2.26846566E-05  gal_flow
END period  1213

BEGIN period  1214
  1 94 71     748.00000000  5.76675580E-06  gal_flow
  1 94 72     748.00768691  2.26846566E-05  gal_flow
  1 94 73     748.03792485  2.26846566E-05  gal_flow
  1 94 74     748.06816278  2.26846566E-05  gal_flow
  1 94 75     748.09840072  2.26846566E-05  gal_flow
  1 94 76     748.12863866  2.26846566E-05  gal_flow
  1 94 77     748.15887660  1.09964332E-05  gal_flow
  1 93 77     748.17353451  1.16882234E-05  gal_flow
  1 93 78     748.18911454  2.26846566E-05  gal_flow
  1 93 79     748.21935248  2.26846566E-05  gal_flow
  1 93 80     748.24959042  2.26846566E-05  gal_flow
  1 93 81     748.27982836  2.26846566E-05  gal_flow
  1 93 82     748.31006630  2.26846566E-05  gal_flow
  2 93 83     748.34030424  2.26846566E-05  gal_flow
  2 93 84     748.37054218  2.26846566E-05  gal_flow
  2 93 85     748.40078012  9.27585495E-06  gal_flow
  2 92 85     748.41314455  1.34088017E-05  gal_flow
  2 92 86     748.43101806  2.26846566E-05  gal_flow
  2 92 87     748.46125600  2.26846566E-05  gal_flow
  2 92 88     748.49149394  2.26846566E-05  gal_flow
  2 92 89     748.52173188  2.26846566E-05  gal_flow
  2 92 90     748.55196982  2.26846566E-05  gal_flow
  2 92 91     748.58220776  2.26846566E-05  gal_flow
END period  1214

BEGIN period  1216
  1 94 71     748.00000000  5.76675580E-06  gal_flow
  1 94 72     748.00768691  2.26846566E-05  gal_flow
  1 94 73     748.03792485  2.26846566E-05  gal_flow
  1 94 74     748.06816278  2.26846566E-05  gal_flow
  1 94 75     748.09840072  2.26846566E-05  gal_flow
  1 94 76     748.12863866  2.26846566E-05  gal_flow
  1 94 77     748.15887660  1.09964332E-05  gal_flow
  1 93 77     748.17353451  1.16882234E-05  gal_flow
  1 93 78     748.18911454  2.26846566E-05  gal_flow
  1 93 79     748.21935248  2.26846566E-05  gal_flow
  1 93 80     748.24959042  2.26846566E-05  gal_flow
  1 93 81     748.27982836  2.26846566E-05  gal_flow
  1 93 82     748.31006630  2.26846566E-05  gal_flow
  2 93 83     748.34030424  2.26846566E-05  gal_flow
  2 93 84     748.37054218  2.26846566E-05  gal_flow
  2 93 85     748.40078012  9.27585495E-06  gal_flow
  2 92 85     748.41314455  1.34088017E-05  gal_flow
  2 92 86     748.43101806  2.26846566E-05  gal_flow
  2 92 87     748.46125600  2.26846566E-05  gal_flow
  2 92 88     748.49149394  2.26846566E-05  gal_flow
  2 92 89     748.52173188  2.26846566E-05  gal_flow
  2 92 90     748.55196982  2.26846566E-05  gal_flow
  2 92 91     748.58220776  2.26846566E-05  gal_flow
  2 92 92     748.61244570  2.26846566E-05  gal_flow
  2 92 93     748.64268364  7.55527669E-06  gal_flow
END period  1216

BEGIN period  1217
  1 94 71     748.00000000  5.76675580E-06  gal_flow
  1 94 72     748.00768691  2.26846566E-05  gal_flow
  1 94 73     748.03792485  2.26846566E-05  gal_flow
  1 94 74     748.06816278  2.26846566E-05  gal_flow
  1 94 75     748.09840072  2.26846566E-05  gal_flow
  1 94 76     748.12863866  2.26846566E-05  gal_flow
  1 94 77     748.15887660  1.09964332E-05  gal_flow
  1 93 77     748.17353451  1.16882234E-05  gal_flow
  1 93 78     748.18911454  2.26846566E-05  gal_flow
  1 93 79     748.21935248  2.26846566E-05  gal_flow
  1 93 80     748.24959042  2.26846566E-05  gal_flow
  1 93 81     748.27982836  2.26846566E-05  gal_flow
  1 93 82     748.31006630  2.26846566E-05  gal_flow
  2 93 83     748.34030424  2.26846566E-05  gal_flow
  2 93 84     748.37054218  2.26846566E-05  gal_flow
  2 93 85     748.40078012  9.27585495E-06  gal_flow
  2 92 85     748.41314455  1.34088017E-05  gal_flow
  2 92 86     748.43101806  2.26846566E-05  gal_flow
  2 92 87     748.46125600  2.26846566E-05  gal_flow
  2 92 88     748.49149394  2.26846566E-05  gal_flow
  2 92 89     748.52173188  2.26846566E-05  gal_flow
  2 92 90     748.55196982  2.26846566E-05  gal_flow
  2 92 91     748.58220776  2.26846566E-05  gal_flow
  2 92 92     748.61244570  2.26846566E-05  gal_flow
  2 92 93     748.64268364  7.55527669E-06  gal_flow
  2 91 93     748.65275459  1.51293800E-05  gal_flow
END period  1217

BEGIN period  1218
  1 94 71     748.00000000  5.76675580E-06  gal_flow
  1 94 72     748.00768691  2.26846566E-05  gal_flow
  1 94 73     748.03792485  2.26846566E-05  gal_flow
  1 94 74     748.06816278  2.26846566E-05  gal_flow
  1 94 75     748.09840072  2.26846566E-05  gal_flow
  1 94 76     748.12863866  2.26846566E-05  gal_flow
  1 94 77     748.15887660  1.09964332E-05  gal_flow
  1 93 77     748.17353451  1.16882234E-05  gal_flow
  1 93 78     748.18911454  2.26846566E-05  gal_flow
  1 93 79     748.21935248  2.26846566E-05  gal_flow
  1 93 80     748.24959042  2.26846566E-05  gal_flow
  1 93 81     748.27982836  2.26846566E-05  gal_flow
  1 93 82     748.31006630  2.26846566E-05  gal_flow
  2 93 83     748.34030424  2.26846566E-05  gal_flow
  2 93 84     748.37054218  2.26846566E-05  gal_flow
  2 93 85     748.40078012  9.27585495E-06  gal_flow
  2 92 85     748.41314455  1.34088017E-05  gal_flow
  2 92 86     748.43101806  2.26846566E-05  gal_flow
  2 92 87     748.46125600  2.26846566E-05  gal_flow
  2 92 88     748.49149394  2.26846566E-05  gal_flow
  2 92 89     748.52173188  2.26846566E-05  gal_flow
  2 92 90     748.55196982  2.26846566E-05  gal_flow
  2 92 91     748.58220776  2.26846566E-05  gal_flow
  2 92 92     748.61244570  2.26846566E-05  gal_flow
  2 92 93     748.64268364  7.55527669E-06  gal_flow
  2 91 93     748.65275459  1.51293800E-05  gal_flow
  2 91 94     748.67292158  2.26846566E-05  gal_flow
END period  1218

BEGIN period  1220
  1 94 71     748.00000000  5.76675580E-06  gal_flow
  1 94 72     748.00768691  2.26846566E-05  gal_flow
  1 94 73     748.03792485  2.26846566E-05  gal_flow
  1 94 74     748.06816278  2.26846566E-05  gal_flow
  1 94 75     748.09840072  2.26846566E-05  gal_flow
  1 94 76     748.12863866  2.26846566E-05  gal_flow
  1 94 77     748.15887660  1.09964332E-05  gal_flow
  1 93 77     748.17353451  1.16882234E-05  gal_flow
  1 93 78     748.18911454  2.26846566E-05  gal_flow
  1 93 79     748.21935248  2.26846566E-05  gal_flow
  1 93 80     748.24959042  2.26846566E-05  gal_flow
  1 93 81     748.27982836  2.26846566E-05  gal_flow
  1 93 82     748.31006630  2.26846566E-05  gal_flow
  2 93 83     748.34030424  2.26846566E-05  gal_flow
  2 93 84     748.37054218  2.26846566E-05  gal_flow
  2 93 85     748.40078012  9.27585495E-06  gal_flow
  2 92 85     748.41314455  1.34088017E-05  gal_flow
  2 92 86     748.43101806  2.26846566E-05  gal_flow
  2 92 87     748.46125600  2.26846566E-05  gal_flow
  2 92 88     748.49149394  2.26846566E-05  gal_flow
  2 92 89     748.52173188  2.26846566E-05  gal_flow
  2 92 90     748.55196982  2.26846566E-05  gal_flow
  2 92 91     748.58220776  2.26846566E-05  gal_flow
  2 92 92     748.61244570  2.26846566E-05  gal_flow
  2 92 93     748.64268364  7.55527669E-06  gal_flow
  2 91 93     748.65275459  1.51293800E-05  gal_flow
  2 91 94     748.67292158  2.26846566E-05  gal_flow
  2 91 95     748.70315952  2.26846566E-05  gal_flow
END period  1220

BEGIN period  1221
  1 94 71     748.00000000  5.76675580E-06  gal_flow
  1 94 72     748.00768691  2.26846566E-05  gal_flow
  1 94 73     748.03792485  2.26846566E-05  gal_flow
  1 94 74     748.06816278  2.26846566E-05  gal_flow
  1 94 75     748.09840072  2.26846566E-05  gal_flow
  1 94 76     748.12863866  2.26846566E-05  gal_flow
  1 94 77     748.15887660  1.09964332E-05  gal_flow
  1 93 77     748.17353451  1.16882234E-05  gal_flow
  1 93 78     748.18911454  2.26846566E-05  gal_flow
  1 93 79     748.21935248  2.26846566E-05  gal_flow
  1 93 80     748.24959042  2.26846566E-05  gal_flow
  1 93 81     748.27982836  2.26846566E-05  gal_flow
  1 93 82     748.31006630  2.26846566E-05  gal_flow
  2 93 83     748.34030424  2.26846566E-05  gal_flow
  2 93 84     748.37054218  2.26846566E-05  gal_flow
  2 93 85     748.40078012  9.27585495E-06  gal_flow
  2 92 85     748.41314455  1.34088017E-05  gal_flow
  2 92 86     748.43101806  2.26846566E-05  gal_flow
  2 92 87     748.46125600  2.26846566E-05  gal_flow
  2 92 88     748.49149394  2.26846566E-05  gal_flow
  2 92 89     748.52173188  2.26846566E-05  gal_flow
  2 92 90     748.55196982  2.26846566E-05  gal_flow
  2 92 91     748.58220776  2.26846566E-05  gal_flow
  2 92 92     748.61244570  2.26846566E-05  gal_flow
  2 92 93     748.64268364  7.55527669E-06  gal_flow
  2 91 93     748.65275459  1.51293800E-05  gal_flow
  2 91 94     748.67292158  2.26846566E-05  gal_flow
  2 91 95     748.70315952  2.26846566E-05  gal_flow
  2 91 96     748.73339746  2.26846566E-05  gal_flow
END period  1221

BEGIN period  1223
  1 94 71     748.00000000  5.76675580E-06  gal_flow
  1 94 72     748.00768691  2.26846566E-05  gal_flow
  1 94 73     748.03792485  2.26846566E-05  gal_flow
  1 94 74     748.06816278  2.26846566E-05  gal_flow
  1 94 75     748.09840072  2.26846566E-05  gal_flow
  1 94 76     748.12863866  2.26846566E-05  gal_flow
  1 94 77     748.15887660  1.09964332E-05  gal_flow
  1 93 77     748.17353451  1.16882234E-05  gal_flow
  1 93 78     748.18911454  2.26846566E-05  gal_flow
  1 93 79     748.21935248  2.26846566E-05  gal_flow
  1 93 80     748.24959042  2.26846566E-05  gal_flow
  1 93 81     748.27982836  2.26846566E-05  gal_flow
  1 93 82     748.31006630  2.26846566E-05  gal_flow
  2 93 83     748.34030424  2.26846566E-05  gal_flow
  2 93 84     748.37054218  2.26846566E-05  gal_flow
  2 93 85     748.40078012  9.27585495E-06  gal_flow
  2 92 85     748.41314455  1.34088017E-05  gal_flow
  2 92 86     748.43101806  2.26846566E-05  gal_flow
  2 92 87     748.46125600  2.26846566E-05  gal_flow
  2 92 88     748.49149394  2.26846566E-05  gal_flow
  2 92 89     748.52173188  2.26846566E-05  gal_flow
  2 92 90     748.55196982  2.26846566E-05  gal_flow
  2 92 91     748.58220776  2.26846566E-05  gal_flow
  2 92 92     748.61244570  2.26846566E-05  gal_flow
  2 92 93     748.64268364  7.55527669E-06  gal_flow
  2 91 93     748.65275459  1.51293800E-05  gal_flow
  2 91 94     748.67292158  2.26846566E-05  gal_flow
  2 91 95     748.70315952  2.26846566E-05  gal_flow
  2 91 96     748.73339746  2.26846566E-05  gal_flow
  2 91 97     748.76363540  2.26846566E-05  gal_flow
END period  1223

BEGIN period  1224
  1 94 71     748.00000000  5.76675580E-06  gal_flow
  1 94 72     748.00768691  2.26846566E-05  gal_flow
  1 94 73     748.03792485  2.26846566E-05  gal_flow
  1 94 74     748.06816278  2.26846566E-05  gal_flow
  1 94 75     748.09840072  2.26846566E-05  gal_flow
  1 94 76     748.12863866  2.26846566E-05  gal_flow
  1 94 77     748.15887660  1.09964332E-05  gal_flow
  1 93 77     748.17353451  1.16882234E-05  gal_flow
  1 93 78     748.18911454  2.26846566E-05  gal_flow
  1 93 79     748.21935248  2.26846566E-05  gal_flow
  1 93 80     748.24959042  2.26846566E-05  gal_flow
  1 93 81     748.27982836  2.26846566E-05  gal_flow
  1 93 82     748.31006630  2.26846566E-05  gal_flow
  2 93 83     748.34030424  2.26846566E-05  gal_flow
  2 93 84     748.37054218  2.26846566E-05  gal_flow
  2 93 85     748.40078012  9.27585495E-06  gal_flow
  2 92 85     748.41314455  1.34088017E-05  gal_flow
  2 92 86     748.43101806  2.26846566E-05  gal_flow
  2 92 87     748.46125600  2.26846566E-05  gal_flow
  2 92 88     748.49149394  2.26846566E-05  gal_flow
  2 92 89     748.52173188  2.26846566E-05  gal_flow
  2 92 90     748.55196982  2.26846566E-05  gal_flow
  2 92 91     748.58220776  2.26846566E-05  gal_flow
  2 92 92     748.61244570  2.26846566E-05  gal_flow
  2 92 93     748.64268364  7.55527669E-06  gal_flow
  2 91 93     748.65275459  1.51293800E-05  gal_flow
  2 91 94     748.67292158  2.26846566E-05  gal_flow
  2 91 95     748.70315952  2.26846566E-05  gal_flow
  2 91 96     748.73339746  2.26846566E-05  gal_flow
  2 91 97     748.76363540  2.26846566E-05  gal_flow
  2 91 98     748.79387334  2.26846566E-05  gal_flow
END period  1224

BEGIN period  1225
  1 94 71     748.00000000  5.76675580E-06  gal_flow
  1 94 72     748.00768691  2.26846566E-05  gal_flow
  1 94 73     748.03792485  2.26846566E-05  gal_flow
  1 94 74     748.06816278  2.26846566E-05  gal_flow
  1 94 75     748.09840072  2.26846566E-05  gal_flow
  1 94 76     748.12863866  2.26846566E-05  gal_flow
  1 94 77     748.15887660  1.09964332E-05  gal_flow
  1 93 77     748.17353451  1.16882234E-05  gal_flow
  1 93 78     748.18911454  2.26846566E-05  gal_flow
  1 93 79     748.21935248  2.26846566E-05  gal_flow
  1 93 80     748.24959042  2.26846566E-05  gal_flow
  1 93 81     748.27982836  2.26846566E-05  gal_flow
  1 93 82     748.31006630  2.26846566E-05  gal_flow
  2 93 83     748.34030424  2.26846566E-05  gal_flow
  2 93 84     748.37054218  2.26846566E-05  gal_flow
  2 93 85     748.40078012  9.27585495E-06  gal_flow
  2 92 85     748.41314455  1.34088017E-05  gal_flow
  2 92 86     748.43101806  2.26846566E-05  gal_flow
  2 92 87     748.46125600  2.26846566E-05  gal_flow
  2 92 88     748.49149394  2.26846566E-05  gal_flow
  2 92 89     748.52173188  2.26846566E-05  gal_flow
  2 92 90     748.55196982  2.26846566E-05  gal_flow
  2 92 91     748.58220776  2.26846566E-05  gal_flow
  2 92 92     748.61244570  2.26846566E-05  gal_flow
  2 92 93     748.64268364  7.55527669E-06  gal_flow
  2 91 93     748.65275459  1.51293800E-05  gal_flow
  2 91 94     748.67292158  2.26846566E-05  gal_flow
  2 91 95     748.70315952  2.26846566E-05  gal_flow
  2 91 96     748.73339746  2.26846566E-05  gal_flow
  2 91 97     748.76363540  2.26846566E-05  gal_flow
  2 91 98     748.79387334  2.26846566E-05  gal_flow
  2 91 99     748.82411128  2.26846566E-05  gal_flow
END period  1225

BEGIN period  1227
  1 94 71     748.00000000  5.76675580E-06  gal_flow
  1 94 72     748.00768691  2.26846566E-05  gal_flow
  1 94 73     748.03792485  2.26846566E-05  gal_flow
  1 94 74     748.06816278  2.26846566E-05  gal_flow
  1 94 75     748.09840072  2.26846566E-05  gal_flow
  1 94 76     748.12863866  2.26846566E-05  gal_flow
  1 94 77     748.15887660  1.09964332E-05  gal_flow
  1 93 77     748.17353451  1.16882234E-05  gal_flow
  1 93 78     748.18911454  2.26846566E-05  gal_flow
  1 93 79     748.21935248  2.26846566E-05  gal_flow
  1 93 80     748.24959042  2.26846566E-05  gal_flow
  1 93 81     748.27982836  2.26846566E-05  gal_flow
  1 93 82     748.31006630  2.26846566E-05  gal_flow
  2 93 83     748.34030424  2.26846566E-05  gal_flow
  2 93 84     748.37054218  2.26846566E-05  gal_flow
  2 93 85     748.40078012  9.27585495E-06  gal_flow
  2 92 85     748.41314455  1.34088017E-05  gal_flow
  2 92 86     748.43101806  2.26846566E-05  gal_flow
  2 92 87     748.46125600  2.26846566E-05  gal_flow
  2 92 88     748.49149394  2.26846566E-05  gal_flow
  2 92 89     748.52173188  2.26846566E-05  gal_flow
  2 92 90     748.55196982  2.26846566E-05  gal_flow
  2 92 91     748.58220776  2.26846566E-05  gal_flow
  2 92 92     748.61244570  2.26846566E-05  gal_flow
  2 92 93     748.64268364  7.55527669E-06  gal_flow
  2 91 93     748.65275459  1.51293800E-05  gal_flow
  2 91 94     748.67292158  2.26846566E-05  gal_flow
  2 91 95     748.70315952  2.26846566E-05  gal_flow
  2 91 96     748.73339746  2.26846566E-05  gal_flow
  2 91 97     748.76363540  2.26846566E-05  gal_flow
  2 91 98     748.79387334  2.26846566E-05  gal_flow
  2 91 99     748.82411128  2.26846566E-05  gal_flow
  2 91 100     748.85434922  2.26846566E-05  gal_flow
  2 91 101     748.88458715  5.83469843E-06  gal_flow
END period  1227

BEGIN period  1228
  1 94 71     748.00000000  5.76675580E-06  gal_flow
  1 94 72     748.00768691  2.26846566E-05  gal_flow
  1 94 73     748.03792485  2.26846566E-05  gal_flow
  1 94 74     748.06816278  2.26846566E-05  gal_flow
  1 94 75     748.09840072  2.26846566E-05  gal_flow
  1 94 76     748.12863866  2.26846566E-05  gal_flow
  1 94 77     748.15887660  1.09964332E-05  gal_flow
  1 93 77     748.17353451  1.16882234E-05  gal_flow
  1 93 78     748.18911454  2.26846566E-05  gal_flow
  1 93 79     748.21935248  2.26846566E-05  gal_flow
  1 93 80     748.24959042  2.26846566E-05  gal_flow
  1 93 81     748.27982836  2.26846566E-05  gal_flow
  1 93 82     748.31006630  2.26846566E-05  gal_flow
  2 93 83     748.34030424  2.26846566E-05  gal_flow
  2 93 84     748.37054218  2.26846566E-05  gal_flow
  2 93 85     748.40078012  9.27585495E-06  gal_flow
  2 92 85     748.41314455  1.34088017E-05  gal_flow
  2 92 86     748.43101806  2.26846566E-05  gal_flow
  2 92 87     748.46125600  2.26846566E-05  gal_flow
  2 92 88     748.49149394  2.26846566E-05  gal_flow
  2 92 89     748.52173188  2.26846566E-05  gal_flow
  2 92 90     748.55196982  2.26846566E-05  gal_flow
  2 92 91     748.58220776  2.26846566E-05  gal_flow