# File generated by Flopy version 3.3.2 on 08/24/2021 at 15:10:50.
BEGIN options
  TIME_UNITS  seconds
END options

BEGIN dimensions
  NPER  1460
END dimensions

BEGIN perioddata
       1.00000000  1       1.00000000
   86400.00000000  1       1.00000000
   86400.00000000  1       1.00000000
   86400.00000000  1       1.00000000
   86400.00000000  1       1.00000000
   86400.00000000  1       1.00000000
   86400.00000000  1       1.00000000
   86400.00000000  1       1.00000000
   86400.00000000  1       1.00000000
   86400.00000000  1       1.00000000
   86400.00000000  1       1.00000000
   86400.00000000  1       1.00000000
   86400.00000000  1       1.00000000
   86400.00000000  1       1.00000000
   86400.00000000  1       1.00000000
   86400.00000000  1       1.00000000
   86400.00000000  1       1.00000000
   86400.00000000  1       1.00000000
   86400.00000000  1       1.00000000
   86400.00000000  1       1.00000000
   86400.00000000  1       1.00000000
   86400.00000000  1       1.00000000
   86400.00000000  1       1.00000000
   86400.00000000  1       1.00000000
   86400.00000000  1       1.00000000
   86400.00000000  1       1.00000000
   86400.00000000  1       1.00000000
   86400.00000000  1       1.00000000
   86400.00000000  1       1.00000000
   86400.00000000  1       1.00000000
   86400.00000000  1       1.00000000
   86400.00000000  1       1.00000000
   86400.00000000  1       1.00000000
   86400.00000000  1       1.00000000
   86400.00000000  1       1.00000000
   86400.00000000  1       1.00000000
   86400.00000000  1       1.00000000
   86400.00000000  1       1.00000000
   86400.00000000  1       1.00000000
   86400.00000000  1       1.00000000
   86400.00000000  1       1.00000000
   86400.00000000  1       1.00000000
   86400.00000000  1       1.00000000
   86400.00000000  1       1.00000000
   86400.00000000  1       1.00000000
   86400.00000000  1       1.00000000
   86400.00000000  1       1.00000000
   86400.00000000  1       1.00000000
   86400.00000000  1       1.00000000
   86400.00000000  1       1.00000000
   86400.00000000  1       1.00000000
   86400.00000000  1       1.00000000
   86400.00000000  1       1.00000000
   86400.00000000  1       1.00000000
   86400.00000000  1       1.00000000
   86400.00000000  1       1.00000000
   86400.00000000  1       1.00000000
   86400.00000000  1       1.00000000
   86400.00000000  1       1.00000000
   86400.00000000  1       1.00000000
   86400.00000000  1       1.00000000
   86400.00000000  1       1.00000000
   86400.00000000  1       1.00000000
   86400.00000000  1       1.00000000
   86400.00000000  1       1.00000000
   86400.00000000  1       1.00000000
   86400.00000000  1       1.00000000
   86400.00000000  1       1.00000000
   86400.00000000  1       1.00000000
   86400.00000000  1       1.00000000
   86400.00000000  1       1.00000000
   86400.00000000  1       1.00000000
   86400.00000000  1       1.00000000
   86400.00000000  1       1.00000000
   86400.00000000  1       1.00000000
   86400.00000000  1       1.00000000
   86400.00000000  1       1.00000000
   86400.00000000  1       1.00000000
   86400.00000000  1       1.00000000
   86400.00000000  1       1.00000000
   86400.00000000  1       1.00000000
   86400.00000000  1       1.00000000
   86400.00000000  1       1.00000000
   86400.00000000  1       1.00000000
   86400.00000000  1       1.00000000
   86400.00000000  1       1.00000000
   86400.00000000  1       1.00000000
   86400.00000000  1       1.00000000
   86400.00000000  1       1.00000000
   86400.00000000  1       1.00000000
   86400.00000000  1       1.00000000
   86400.00000000  1       1.00000000
   86400.00000000  1       1.00000000
   86400.00000000  1       1.00000000
   86400.00000000  1       1.00000000
   86400.00000000  1       1.00000000
   86400.00000000  1       1.00000000
   86400.00000000  1       1.00000000
   86400.00000000  1       1.00000000
   86400.00000000  1       1.00000000
   86400.00000000  1       1.00000000
   86400.00000000  1       1.00000000
   86400.00000000  1       1.00000000
   86400.00000000  1       1.00000000
   86400.00000000  1       1.00000000
   86400.00000000  1       1.00000000
   86400.00000000  1       1.00000000
   86400.00000000  1       1.00000000
   86400.00000000  1       1.00000000
   86400.00000000  1       1.00000000
   86400.00000000  1       1.00000000
   86400.00000000  1       1.00000000
   86400.00000000  1       1.00000000
   86400.00000000  1       1.00000000
   86400.00000000  1       1.00000000
   86400.00000000  1       1.00000000
   86400.00000000  1       1.00000000
   86400.00000000  1       1.00000000
   86400.00000000  1       1.00000000
   86400.00000000  1       1.00000000
   86400.00000000  1       1.00000000
   86400.00000000  1       1.00000000
   86400.00000000  1       1.00000000
   86400.00000000  1       1.00000000
   86400.00000000  1       1.00000000
   86400.00000000  1       1.00000000
   86400.00000000  1       1.00000000
   86400.00000000  1       1.00000000
   86400.00000000  1       1.00000000
   86400.00000000  1       1.00000000
   86400.00000000  1       1.00000000
   86400.00000000  1       1.00000000
   86400.00000000  1       1.00000000
   86400.00000000  1       1.00000000
   86400.00000000  1       1.00000000
   86400.00000000  1       1.00000000
   86400.00000000  1       1.00000000
   86400.00000000  1       1.00000000
   86400.00000000  1       1.00000000
   86400.00000000  1       1.00000000
   86400.00000000  1       1.00000000
   86400.00000000  1       1.00000000
   86400.00000000  1       1.00000000
   86400.00000000  1       1.00000000
   86400.00000000  1       1.00000000
   86400.00000000  1       1.00000000
   86400.00000000  1       1.00000000
   86400.00000000  1       1.00000000
   86400.00000000  1       1.00000000
   86400.00000000  1       1.00000000
   86400.00000000  1       1.00000000
   86400.00000000  1       1.00000000
   86400.00000000  1       1.00000000
   86400.00000000  1       1.00000000
   86400.00000000  1       1.00000000
   86400.00000000  1       1.00000000
   86400.00000000  1       1.00000000
   86400.00000000  1       1.00000000
   86400.00000000  1       1.00000000
   86400.00000000  1       1.00000000
   86400.00000000  1       1.00000000
   86400.00000000  1       1.00000000
   86400.00000000  1       1.00000000
   86400.00000000  1       1.00000000
   86400.00000000  1       1.00000000
   86400.00000000  1       1.00000000
   86400.00000000  1       1.00000000
   86400.00000000  1       1.00000000
   86400.00000000  1       1.00000000
   86400.00000000  1       1.00000000
   86400.00000000  1       1.00000000
   86400.00000000  1       1.00000000
   86400.00000000  1       1.00000000
   86400.00000000  1       1.00000000
   86400.00000000  1       1.00000000
   86400.00000000  1       1.00000000
   86400.00000000  1       1.00000000
   86400.00000000  1       1.00000000
   86400.00000000  1       1.00000000
   86400.00000000  1       1.00000000
   86400.00000000  1       1.00000000
   86400.00000000  1       1.00000000
   86400.00000000  1       1.00000000
   86400.00000000  1       1.00000000
   86400.00000000  1       1.00000000
   86400.00000000  1       1.00000000
   86400.00000000  1       1.00000000
   86400.00000000  1       1.00000000
   86400.00000000  1       1.00000000
   86400.00000000  1       1.00000000
   86400.00000000  1       1.00000000
   86400.00000000  1       1.00000000
   86400.00000000  1       1.00000000
   86400.00000000  1       1.00000000
   86400.00000000  1       1.00000000
   86400.00000000  1       1.00000000
   86400.00000000  1       1.00000000
   86400.00000000  1       1.00000000
   86400.00000000  1       1.00000000
   86400.00000000  1       1.00000000
   86400.00000000  1       1.00000000
   86400.00000000  1       1.00000000
   86400.00000000  1       1.00000000
   86400.00000000  1       1.00000000
   86400.00000000  1       1.00000000
   86400.00000000  1       1.00000000
   86400.00000000  1       1.00000000
   86400.00000000  1       1.00000000
   86400.00000000  1       1.00000000
   86400.00000000  1       1.00000000
   86400.00000000  1       1.00000000
   86400.00000000  1       1.00000000
   86400.00000000  1       1.00000000
   86400.00000000  1       1.00000000
   86400.00000000  1       1.00000000
   86400.00000000  1       1.00000000
   86400.00000000  1       1.00000000
   86400.00000000  1       1.00000000
   86400.00000000  1       1.00000000
   86400.00000000  1       1.00000000
   86400.00000000  1       1.00000000
   86400.00000000  1       1.00000000
   86400.00000000  1       1.00000000
   86400.00000000  1       1.00000000
   86400.00000000  1       1.00000000
   86400.00000000  1       1.00000000
   86400.00000000  1       1.00000000
   86400.00000000  1       1.00000000
   86400.00000000  1       1.00000000
   86400.00000000  1       1.00000000
   86400.00000000  1       1.00000000
   86400.00000000  1       1.00000000
   86400.00000000  1       1.00000000
   86400.00000000  1       1.00000000
   86400.00000000  1       1.00000000
   86400.00000000  1       1.00000000
   86400.00000000  1       1.00000000
   86400.00000000  1       1.00000000
   86400.00000000  1       1.00000000
   86400.00000000  1       1.00000000
   86400.00000000  1       1.00000000
   86400.00000000  1       1.00000000
   86400.00000000  1       1.00000000
   86400.00000000  1       1.00000000
   86400.00000000  1       1.00000000
   86400.00000000  1       1.00000000
   86400.00000000  1       1.00000000
   86400.00000000  1       1.00000000
   86400.00000000  1       1.00000000
   86400.00000000  1       1.00000000
   86400.00000000  1       1.00000000
   86400.00000000  1       1.00000000
   86400.00000000  1       1.00000000
   86400.00000000  1       1.00000000
   86400.00000000  1       1.00000000
   86400.00000000  1       1.00000000
   86400.00000000  1       1.00000000
   86400.00000000  1       1.00000000
   86400.00000000  1       1.00000000
   86400.00000000  1       1.00000000
   86400.00000000  1       1.00000000
   86400.00000000  1       1.00000000
   86400.00000000  1       1.00000000
   86400.00000000  1       1.00000000
   86400.00000000  1       1.00000000
   86400.00000000  1       1.00000000
   86400.00000000  1       1.00000000
   86400.00000000  1       1.00000000
   86400.00000000  1       1.00000000
   86400.00000000  1       1.00000000
   86400.00000000  1       1.00000000
   86400.00000000  1       1.00000000
   86400.00000000  1       1.00000000
   86400.00000000  1       1.00000000
   86400.00000000  1       1.00000000
   86400.00000000  1       1.00000000
   86400.00000000  1       1.00000000
   86400.00000000  1       1.00000000
   86400.00000000  1       1.00000000
   86400.00000000  1       1.00000000
   86400.00000000  1       1.00000000
   86400.00000000  1       1.00000000
   86400.00000000  1       1.00000000
   86400.00000000  1       1.00000000
   86400.00000000  1       1.00000000
   86400.00000000  1       1.00000000
   86400.00000000  1       1.00000000
   86400.00000000  1       1.00000000
   86400.00000000  1       1.00000000
   86400.00000000  1       1.00000000
   86400.00000000  1       1.00000000
   86400.00000000  1       1.00000000
   86400.00000000  1       1.00000000
   86400.00000000  1       1.00000000
   86400.00000000  1       1.00000000
   86400.00000000  1       1.00000000
   86400.00000000  1       1.00000000
   86400.00000000  1       1.00000000
   86400.00000000  1       1.00000000
   86400.00000000  1       1.00000000
   86400.00000000  1       1.00000000
   86400.00000000  1       1.00000000
   86400.00000000  1       1.00000000
   86400.00000000  1       1.00000000
   86400.00000000  1       1.00000000
   86400.00000000  1       1.00000000
   86400.00000000  1       1.00000000
   86400.00000000  1       1.00000000
   86400.00000000  1       1.00000000
   86400.00000000  1       1.00000000
   86400.00000000  1       1.00000000
   86400.00000000  1       1.00000000
   86400.00000000  1       1.00000000
   86400.00000000  1       1.00000000
   86400.00000000  1       1.00000000
   86400.00000000  1       1.00000000
   86400.00000000  1       1.00000000
   86400.00000000  1       1.00000000
   86400.00000000  1       1.00000000
   86400.00000000  1       1.00000000
   86400.00000000  1       1.00000000
   86400.00000000  1       1.00000000
   86400.00000000  1       1.00000000
   86400.00000000  1       1.00000000
   86400.00000000  1       1.00000000
   86400.00000000  1       1.00000000
   86400.00000000  1       1.00000000
   86400.00000000  1       1.00000000
   86400.00000000  1       1.00000000
   86400.00000000  1       1.00000000
   86400.00000000  1       1.00000000
   86400.00000000  1       1.00000000
   86400.00000000  1       1.00000000
   86400.00000000  1       1.00000000
   86400.00000000  1       1.00000000
   86400.00000000  1       1.00000000
   86400.00000000  1       1.00000000
   86400.00000000  1       1.00000000
   86400.00000000  1       1.00000000
   86400.00000000  1       1.00000000
   86400.00000000  1       1.00000000
   86400.00000000  1       1.00000000
   86400.00000000  1       1.00000000
   86400.00000000  1       1.00000000
   86400.00000000  1       1.00000000
   86400.00000000  1       1.00000000
   86400.00000000  1       1.00000000
   86400.00000000  1       1.00000000
   86400.00000000  1       1.00000000
   86400.00000000  1       1.00000000
   86400.00000000  1       1.00000000
   86400.00000000  1       1.00000000
   86400.00000000  1       1.00000000
   86400.00000000  1       1.00000000
   86400.00000000  1       1.00000000
   86400.00000000  1       1.00000000
   86400.00000000  1       1.00000000
   86400.00000000  1       1.00000000
   86400.00000000  1       1.00000000
   86400.00000000  1       1.00000000
   86400.00000000  1       1.00000000
   86400.00000000  1       1.00000000
   86400.00000000  1       1.00000000
   86400.00000000  1       1.00000000
   86400.00000000  1       1.00000000
   86400.00000000  1       1.00000000
   86400.00000000  1       1.00000000
   86400.00000000  1       1.00000000
   86400.00000000  1       1.00000000
   86400.00000000  1       1.00000000
   86400.00000000  1       1.00000000
   86400.00000000  1       1.00000000
   86400.00000000  1       1.00000000
   86400.00000000  1       1.00000000
   86400.00000000  1       1.00000000
   86400.00000000  1       1.00000000
   86400.00000000  1       1.00000000
   86400.00000000  1       1.00000000
   86400.00000000  1       1.00000000
   86400.00000000  1       1.00000000
   86400.00000000  1       1.00000000
   86400.00000000  1       1.00000000
   86400.00000000  1       1.00000000
   86400.00000000  1       1.00000000
   86400.00000000  1       1.00000000
   86400.00000000  1       1.00000000
   86400.00000000  1       1.00000000
   86400.00000000  1       1.00000000
   86400.00000000  1       1.00000000
   86400.00000000  1       1.00000000
   86400.00000000  1       1.00000000
   86400.00000000  1       1.00000000
   86400.00000000  1       1.00000000
   86400.00000000  1       1.00000000
   86400.00000000  1       1.00000000
   86400.00000000  1       1.00000000
   86400.00000000  1       1.00000000
   86400.00000000  1       1.00000000
   86400.00000000  1       1.00000000
   86400.00000000  1       1.00000000
   86400.00000000  1       1.00000000
   86400.00000000  1       1.00000000
   86400.00000000  1       1.00000000
   86400.00000000  1       1.00000000
   86400.00000000  1       1.00000000
   86400.00000000  1       1.00000000
   86400.00000000  1       1.00000000
   86400.00000000  1       1.00000000
   86400.00000000  1       1.00000000
   86400.00000000  1       1.00000000
   86400.00000000  1       1.00000000
   86400.00000000  1       1.00000000
   86400.00000000  1       1.00000000
   86400.00000000  1       1.00000000
   86400.00000000  1       1.00000000
   86400.00000000  1       1.00000000
   86400.00000000  1       1.00000000
   86400.00000000  1       1.00000000
   86400.00000000  1       1.00000000
   86400.00000000  1       1.00000000
   86400.00000000  1       1.00000000
   86400.00000000  1       1.00000000
   86400.00000000  1       1.00000000
   86400.00000000  1       1.00000000
   86400.00000000  1       1.00000000
   86400.00000000  1       1.00000000
   86400.00000000  1       1.00000000
   86400.00000000  1       1.00000000
   86400.00000000  1       1.00000000
   86400.00000000  1       1.00000000
   86400.00000000  1       1.00000000
   86400.00000000  1       1.00000000
   86400.00000000  1       1.00000000
   86400.00000000  1       1.00000000
   86400.00000000  1       1.00000000
   86400.00000000  1       1.00000000
   86400.00000000  1       1.00000000
   86400.00000000  1       1.00000000
   86400.00000000  1       1.00000000
   86400.00000000  1       1.00000000
   86400.00000000  1       1.00000000
   86400.00000000  1       1.00000000
   86400.00000000  1       1.00000000
   86400.00000000  1       1.00000000
   86400.00000000  1       1.00000000
   86400.00000000  1       1.00000000
   86400.00000000  1       1.00000000
   86400.00000000  1       1.00000000
   86400.00000000  1       1.00000000
   86400.00000000  1       1.00000000
   86400.00000000  1       1.00000000
   86400.00000000  1       1.00000000
   86400.00000000  1       1.00000000
   86400.00000000  1       1.00000000
   86400.00000000  1       1.00000000
   86400.00000000  1       1.00000000
   86400.00000000  1       1.00000000
   86400.00000000  1       1.00000000
   86400.00000000  1       1.00000000
   86400.00000000  1       1.00000000
   86400.00000000  1       1.00000000
   86400.00000000  1       1.00000000
   86400.00000000  1       1.00000000
   86400.00000000  1       1.00000000
   86400.00000000  1       1.00000000
   86400.00000000  1       1.00000000
   86400.00000000  1       1.00000000
   86400.00000000  1       1.00000000
   86400.00000000  1       1.00000000
   86400.00000000  1       1.00000000
   86400.00000000  1       1.00000000
   86400.00000000  1       1.00000000
   86400.00000000  1       1.00000000
   86400.00000000  1       1.00000000
   86400.00000000  1       1.00000000
   86400.00000000  1       1.00000000
   86400.00000000  1       1.00000000
   86400.00000000  1       1.00000000
   86400.00000000  1       1.00000000
   86400.00000000  1       1.00000000
   86400.00000000  1       1.00000000
   86400.00000000  1       1.00000000
   86400.00000000  1       1.00000000
   86400.00000000  1       1.00000000
   86400.00000000  1       1.00000000
   86400.00000000  1       1.00000000
   86400.00000000  1       1.00000000
   86400.00000000  1       1.00000000
   86400.00000000  1       1.00000000
   86400.00000000  1       1.00000000
   86400.00000000  1       1.00000000
   86400.00000000  1       1.00000000
   86400.00000000  1       1.00000000
   86400.00000000  1       1.00000000
   86400.00000000  1       1.00000000
   86400.00000000  1       1.00000000
   86400.00000000  1       1.00000000
   86400.00000000  1       1.00000000
   86400.00000000  1       1.00000000
   86400.00000000  1       1.00000000
   86400.00000000  1       1.00000000
   86400.00000000  1       1.00000000
   86400.00000000  1       1.00000000
   86400.00000000  1       1.00000000
   86400.00000000  1       1.00000000
   86400.00000000  1       1.00000000
   86400.00000000  1       1.00000000
   86400.00000000  1       1.00000000
   86400.00000000  1       1.00000000
   86400.00000000  1       1.00000000
   86400.00000000  1       1.00000000
   86400.00000000  1       1.00000000
   86400.00000000  1       1.00000000
   86400.00000000  1       1.00000000
   86400.00000000  1       1.00000000
   86400.00000000  1       1.00000000
   86400.00000000  1       1.00000000
   86400.00000000  1       1.00000000
   86400.00000000  1       1.00000000
   86400.00000000  1       1.00000000
   86400.00000000  1       1.00000000
   86400.00000000  1       1.00000000
   86400.00000000  1       1.00000000
   86400.00000000  1       1.00000000
   86400.00000000  1       1.00000000
   86400.00000000  1       1.00000000
   86400.00000000  1       1.00000000
   86400.00000000  1       1.00000000
   86400.00000000  1       1.00000000
   86400.00000000  1       1.00000000
   86400.00000000  1       1.00000000
   86400.00000000  1       1.00000000
   86400.00000000  1       1.00000000
   86400.00000000  1       1.00000000
   86400.00000000  1       1.00000000
   86400.00000000  1       1.00000000
   86400.00000000  1       1.00000000
   86400.00000000  1       1.00000000
   86400.00000000  1       1.00000000
   86400.00000000  1       1.00000000
   86400.00000000  1       1.00000000
   86400.00000000  1       1.00000000
   86400.00000000  1       1.00000000
   86400.00000000  1       1.00000000
   86400.00000000  1       1.00000000
   86400.00000000  1       1.00000000
   86400.00000000  1       1.00000000
   86400.00000000  1       1.00000000
   86400.00000000  1       1.00000000
   86400.00000000  1       1.00000000
   86400.00000000  1       1.00000000
   86400.00000000  1       1.00000000
   86400.00000000  1       1.00000000
   86400.00000000  1       1.00000000
   86400.00000000  1       1.00000000
   86400.00000000  1       1.00000000
   86400.00000000  1       1.00000000
   86400.00000000  1       1.00000000
   86400.00000000  1       1.00000000
   86400.00000000  1       1.00000000
   86400.00000000  1       1.00000000
   86400.00000000  1       1.00000000
   86400.00000000  1       1.00000000
   86400.00000000  1       1.00000000
   86400.00000000  1       1.00000000
   86400.00000000  1       1.00000000
   86400.00000000  1       1.00000000
   86400.00000000  1       1.00000000
   86400.00000000  1       1.00000000
   86400.00000000  1       1.00000000
   86400.00000000  1       1.00000000
   86400.00000000  1       1.00000000
   86400.00000000  1       1.00000000
   86400.00000000  1       1.00000000
   86400.00000000  1       1.00000000
   86400.00000000  1       1.00000000
   86400.00000000  1       1.00000000
   86400.00000000  1       1.00000000
   86400.00000000  1       1.00000000
   86400.00000000  1       1.00000000
   86400.00000000  1       1.00000000
   86400.00000000  1       1.00000000
   86400.00000000  1       1.00000000
   86400.00000000  1       1.00000000
   86400.00000000  1       1.00000000
   86400.00000000  1       1.00000000
   86400.00000000  1       1.00000000
   86400.00000000  1       1.00000000
   86400.00000000  1       1.00000000
   86400.00000000  1       1.00000000
   86400.00000000  1       1.00000000
   86400.00000000  1       1.00000000
   86400.00000000  1       1.00000000
   86400.00000000  1       1.00000000
   86400.00000000  1       1.00000000
   86400.00000000  1       1.00000000
   86400.00000000  1       1.00000000
   86400.00000000  1       1.00000000
   86400.00000000  1       1.00000000
   86400.00000000  1       1.00000000
   86400.00000000  1       1.00000000
   86400.00000000  1       1.00000000
   86400.00000000  1       1.00000000
   86400.00000000  1       1.00000000
   86400.00000000  1       1.00000000
   86400.00000000  1       1.00000000
   86400.00000000  1       1.00000000
   86400.00000000  1       1.00000000
   86400.00000000  1       1.00000000
   86400.00000000  1       1.00000000
   86400.00000000  1       1.00000000
   86400.00000000  1       1.00000000
   86400.00000000  1       1.00000000
   86400.00000000  1       1.00000000
   86400.00000000  1       1.00000000
   86400.00000000  1       1.00000000
   86400.00000000  1       1.00000000
   86400.00000000  1       1.00000000
   86400.00000000  1       1.00000000
   86400.00000000  1       1.00000000
   86400.00000000  1       1.00000000
   86400.00000000  1       1.00000000
   86400.00000000  1       1.00000000
   86400.00000000  1       1.00000000
   86400.00000000  1       1.00000000
   86400.00000000  1       1.00000000
   86400.00000000  1       1.00000000
   86400.00000000  1       1.00000000
   86400.00000000  1       1.00000000
   86400.00000000  1       1.00000000
   86400.00000000  1       1.00000000
   86400.00000000  1       1.00000000
   86400.00000000  1       1.00000000
   86400.00000000  1       1.00000000
   86400.00000000  1       1.00000000
   86400.00000000  1       1.00000000
   86400.00000000  1       1.00000000
   86400.00000000  1       1.00000000
   86400.00000000  1       1.00000000
   86400.00000000  1       1.00000000
   86400.00000000  1       1.00000000
   86400.00000000  1       1.00000000
   86400.00000000  1       1.00000000
   86400.00000000  1       1.00000000
   86400.00000000  1       1.00000000
   86400.00000000  1       1.00000000
   86400.00000000  1       1.00000000
   86400.00000000  1       1.00000000
   86400.00000000  1       1.00000000
   86400.00000000  1       1.00000000
   86400.00000000  1       1.00000000
   86400.00000000  1       1.00000000
   86400.00000000  1       1.00000000
   86400.00000000  1       1.00000000
   86400.00000000  1       1.00000000
   86400.00000000  1       1.00000000
   86400.00000000  1       1.00000000
   86400.00000000  1       1.00000000
   86400.00000000  1       1.00000000
   86400.00000000  1       1.00000000
   86400.00000000  1       1.00000000
   86400.00000000  1       1.00000000
   86400.00000000  1       1.00000000
   86400.00000000  1       1.00000000
   86400.00000000  1       1.00000000
   86400.00000000  1       1.00000000
   86400.00000000  1       1.00000000
   86400.00000000  1       1.00000000
   86400.00000000  1       1.00000000
   86400.00000000  1       1.00000000
   86400.00000000  1       1.00000000
   86400.00000000  1       1.00000000
   86400.00000000  1       1.00000000
   86400.00000000  1       1.00000000
   86400.00000000  1       1.00000000
   86400.00000000  1       1.00000000
   86400.00000000  1       1.00000000
   86400.00000000  1       1.00000000
   86400.00000000  1       1.00000000
   86400.00000000  1       1.00000000
   86400.00000000  1       1.00000000
   86400.00000000  1       1.00000000
   86400.00000000  1       1.00000000
   86400.00000000  1       1.00000000
   86400.00000000  1       1.00000000
   86400.00000000  1       1.00000000
   86400.00000000  1       1.00000000
   86400.00000000  1       1.00000000
   86400.00000000  1       1.00000000
   86400.00000000  1       1.00000000
   86400.00000000  1       1.00000000
   86400.00000000  1       1.00000000
   86400.00000000  1       1.00000000
   86400.00000000  1       1.00000000
   86400.00000000  1       1.00000000
   86400.00000000  1       1.00000000
   86400.00000000  1       1.00000000
   86400.00000000  1       1.00000000
   86400.00000000  1       1.00000000
   86400.00000000  1       1.00000000
   86400.00000000  1       1.00000000
   86400.00000000  1       1.00000000
   86400.00000000  1       1.00000000
   86400.00000000  1       1.00000000
   86400.00000000  1       1.00000000
   86400.00000000  1       1.00000000
   86400.00000000  1       1.00000000
   86400.00000000  1       1.00000000
   86400.00000000  1       1.00000000
   86400.00000000  1       1.00000000
   86400.00000000  1       1.00000000
   86400.00000000  1       1.00000000
   86400.00000000  1       1.00000000
   86400.00000000  1       1.00000000
   86400.00000000  1       1.00000000
   86400.00000000  1       1.00000000
   86400.00000000  1       1.00000000
   86400.00000000  1       1.00000000
   86400.00000000  1       1.00000000
   86400.00000000  1       1.00000000
   86400.00000000  1       1.00000000
   86400.00000000  1       1.00000000
   86400.00000000  1       1.00000000
   86400.00000000  1       1.00000000
   86400.00000000  1       1.00000000
   86400.00000000  1       1.00000000
   86400.00000000  1       1.00000000
   86400.00000000  1       1.00000000
   86400.00000000  1       1.00000000
   86400.00000000  1       1.00000000
   86400.00000000  1       1.00000000
   86400.00000000  1       1.00000000
   86400.00000000  1       1.00000000
   86400.00000000  1       1.00000000
   86400.00000000  1       1.00000000
   86400.00000000  1       1.00000000
   86400.00000000  1       1.00000000
   86400.00000000  1       1.00000000
   86400.00000000  1       1.00000000
   86400.00000000  1       1.00000000
   86400.00000000  1       1.00000000
   86400.00000000  1       1.00000000
   86400.00000000  1       1.00000000
   86400.00000000  1       1.00000000
   86400.00000000  1       1.00000000
   86400.00000000  1       1.00000000
   86400.00000000  1       1.00000000
   86400.00000000  1       1.00000000
   86400.00000000  1       1.00000000
   86400.00000000  1       1.00000000
   86400.00000000  1       1.00000000
   86400.00000000  1       1.00000000
   86400.00000000  1       1.00000000
   86400.00000000  1       1.00000000
   86400.00000000  1       1.00000000
   86400.00000000  1       1.00000000
   86400.00000000  1       1.00000000
   86400.00000000  1       1.00000000
   86400.00000000  1       1.00000000
   86400.00000000  1       1.00000000
   86400.00000000  1       1.00000000
   86400.00000000  1       1.00000000
   86400.00000000  1       1.00000000
   86400.00000000  1       1.00000000
   86400.00000000  1       1.00000000
   86400.00000000  1       1.00000000
   86400.00000000  1       1.00000000
   86400.00000000  1       1.00000000
   86400.00000000  1       1.00000000
   86400.00000000  1       1.00000000
   86400.00000000  1       1.00000000
   86400.00000000  1       1.00000000
   86400.00000000  1       1.00000000
   86400.00000000  1       1.00000000
   86400.00000000  1       1.00000000
   86400.00000000  1       1.00000000
   86400.00000000  1       1.00000000
   86400.00000000  1       1.00000000
   86400.00000000  1       1.00000000
   86400.00000000  1       1.00000000
   86400.00000000  1       1.00000000
   86400.00000000  1       1.00000000
   86400.00000000  1       1.00000000
   86400.00000000  1       1.00000000