# File generated by Flopy version 3.3.2 on 07/23/2021 at 09:25:31.
BEGIN options
  COMPLEXITY  complex
END options

