# File generated by Flopy version 3.3.2 on 05/27/2021 at 10:50:18.
BEGIN options
  SAVE_FLOWS
END options

BEGIN griddata
  icelltype
    CONSTANT  1
  k
    CONSTANT  1.00000000E-06
END griddata

