# File generated by Flopy version 3.3.4 on 11/21/2021 at 20:34:01.
BEGIN options
  TIME_UNITS  seconds
END options

BEGIN dimensions
  NPER  1460
END dimensions

BEGIN perioddata
       1.00000000  1       1.00000000
   86400.00000000  1       1.00000000
   86400.00000000  1       1.00000000
   86400.00000000  1       1.00000000
   86400.00000000  1       1.00000000
   86400.00000000  1       1.00000000
   86400.00000000  1       1.00000000
   86400.00000000  1       1.00000000
   86400.00000000  1       1.00000000
   86400.00000000  1       1.00000000
   86400.00000000  1       1.00000000
   86400.00000000  1       1.00000000
   86400.00000000  1       1.00000000
   86400.00000000  1       1.00000000
   86400.00000000  1       1.00000000
   86400.00000000  1       1.00000000
   86400.00000000  1       1.00000000
   86400.00000000  1       1.00000000
   86400.00000000  1       1.00000000
   86400.00000000  1       1.00000000
   86400.00000000  1       1.00000000
   86400.00000000  1       1.00000000
   86400.00000000  1       1.00000000
   86400.00000000  1       1.00000000
   86400.00000000  1       1.00000000
   86400.00000000  1       1.00000000
   86400.00000000  1       1.00000000
   86400.00000000  1       1.00000000
   86400.00000000  1       1.00000000
   86400.00000000  1       1.00000000
   86400.00000000  1       1.00000000
   86400.00000000  1       1.00000000
   86400.00000000  1       1.00000000
   86400.00000000  1       1.00000000
   86400.00000000  1       1.00000000
   86400.00000000  1       1.00000000
   86400.00000000  1       1.00000000
   86400.00000000  1       1.00000000
   86400.00000000  1       1.00000000
   86400.00000000  1       1.00000000
   86400.00000000  1       1.00000000
   86400.00000000  1       1.00000000
   86400.00000000  1       1.00000000
   86400.00000000  1       1.00000000
   86400.00000000  1       1.00000000
   86400.00000000  1       1.00000000
   86400.00000000  1       1.00000000
   86400.00000000  1       1.00000000
   86400.00000000  1       1.00000000
   86400.00000000  1       1.00000000
   86400.00000000  1       1.00000000
   86400.00000000  1       1.00000000
   86400.00000000  1       1.00000000
   86400.00000000  1       1.00000000
   86400.00000000  1       1.00000000
   86400.00000000  1       1.00000000
   86400.00000000  1       1.00000000
   86400.00000000  1       1.00000000
   86400.00000000  1       1.00000000
   86400.00000000  1       1.00000000
   86400.00000000  1       1.00000000
   86400.00000000  1       1.00000000
   86400.00000000  1       1.00000000
   86400.00000000  1       1.00000000
   86400.00000000  1       1.00000000
   86400.00000000  1       1.00000000
   86400.00000000  1       1.00000000
   86400.00000000  1       1.00000000
   86400.00000000  1       1.00000000
   86400.00000000  1       1.00000000
   86400.00000000  1       1.00000000
   86400.00000000  1       1.00000000
   86400.00000000  1       1.00000000
   86400.00000000  1       1.00000000
   86400.00000000  1       1.00000000
   86400.00000000  1       1.00000000
   86400.00000000  1       1.00000000
   86400.00000000  1       1.00000000
   86400.00000000  1       1.00000000
   86400.00000000  1       1.00000000
   86400.00000000  1       1.00000000
   86400.00000000  1       1.00000000
   86400.00000000  1       1.00000000
   86400.00000000  1       1.00000000
   86400.00000000  1       1.00000000
   86400.00000000  1       1.00000000
   86400.00000000  1       1.00000000
   86400.00000000  1       1.00000000
   86400.00000000  1       1.00000000
   86400.00000000  1       1.00000000
   86400.00000000  1       1.00000000
   86400.00000000  1       1.00000000
   86400.00000000  1       1.00000000
   86400.00000000  1       1.00000000
   86400.00000000  1       1.00000000
   86400.00000000  1       1.00000000
   86400.00000000  1       1.00000000
   86400.00000000  1       1.00000000
   86400.00000000  1       1.00000000
   86400.00000000  1       1.00000000
   86400.00000000  1       1.00000000
   86400.00000000  1       1.00000000
   86400.00000000  1       1.00000000
   86400.00000000  1       1.00000000
   86400.00000000  1       1.00000000
   86400.00000000  1       1.00000000
   86400.00000000  1       1.00000000
   86400.00000000  1       1.00000000
   86400.00000000  1       1.00000000
   86400.00000000  1       1.00000000
   86400.00000000  1       1.00000000
   86400.00000000  1       1.00000000
   86400.00000000  1       1.00000000
   86400.00000000  1       1.00000000
   86400.00000000  1       1.00000000
   86400.00000000  1       1.00000000
   86400.00000000  1       1.00000000
   86400.00000000  1       1.00000000
   86400.00000000  1       1.00000000
   86400.00000000  1       1.00000000
   86400.00000000  1       1.00000000
   86400.00000000  1       1.00000000
   86400.00000000  1       1.00000000
   86400.00000000  1       1.00000000
   86400.00000000  1       1.00000000
   86400.00000000  1       1.00000000
   86400.00000000  1       1.00000000
   86400.00000000  1       1.00000000
   86400.00000000  1       1.00000000
   86400.00000000  1       1.00000000
   86400.00000000  1       1.00000000
   86400.00000000  1       1.00000000
   86400.00000000  1       1.00000000
   86400.00000000  1       1.00000000
   86400.00000000  1       1.00000000
   86400.00000000  1       1.00000000
   86400.00000000  1       1.00000000
   86400.00000000  1       1.00000000
   86400.00000000  1       1.00000000
   86400.00000000  1       1.00000000
   86400.00000000  1       1.00000000
   86400.00000000  1       1.00000000
   86400.00000000  1       1.00000000
   86400.00000000  1       1.00000000
   86400.00000000  1       1.00000000
   86400.00000000  1       1.00000000
   86400.00000000  1       1.00000000
   86400.00000000  1       1.00000000
   86400.00000000  1       1.00000000
   86400.00000000  1       1.00000000
   86400.00000000  1       1.00000000
   86400.00000000  1       1.00000000
   86400.00000000  1       1.00000000
   86400.00000000  1       1.00000000
   86400.00000000  1       1.00000000
   86400.00000000  1       1.00000000
   86400.00000000  1       1.00000000
   86400.00000000  1       1.00000000
   86400.00000000  1       1.00000000
   86400.00000000  1       1.00000000
   86400.00000000  1       1.00000000
   86400.00000000  1       1.00000000
   86400.00000000  1       1.00000000
   86400.00000000  1       1.00000000
   86400.00000000  1       1.00000000
   86400.00000000  1       1.00000000
   86400.00000000  1       1.00000000
   86400.00000000  1       1.00000000
   86400.00000000  1       1.00000000
   86400.00000000  1       1.00000000
   86400.00000000  1       1.00000000
   86400.00000000  1       1.00000000
   86400.00000000  1       1.00000000
   86400.00000000  1       1.00000000
   86400.00000000  1       1.00000000
   86400.00000000  1       1.00000000
   86400.00000000  1       1.00000000
   86400.00000000  1       1.00000000
   86400.00000000  1       1.00000000
   86400.00000000  1       1.00000000
   86400.00000000  1       1.00000000
   86400.00000000  1       1.00000000
   86400.00000000  1       1.00000000
   86400.00000000  1       1.00000000
   86400.00000000  1       1.00000000
   86400.00000000  1       1.00000000
   86400.00000000  1       1.00000000
   86400.00000000  1       1.00000000
   86400.00000000  1       1.00000000
   86400.00000000  1       1.00000000
   86400.00000000  1       1.00000000
   86400.00000000  1       1.00000000
   86400.00000000  1       1.00000000
   86400.00000000  1       1.00000000
   86400.00000000  1       1.00000000
   86400.00000000  1       1.00000000
   86400.00000000  1       1.00000000
   86400.00000000  1       1.00000000
   86400.00000000  1       1.00000000
   86400.00000000  1       1.00000000
   86400.00000000  1       1.00000000
   86400.00000000  1       1.00000000
   86400.00000000  1       1.00000000
   86400.00000000  1       1.00000000
   86400.00000000  1       1.00000000
   86400.00000000  1       1.00000000
   86400.00000000  1       1.00000000
   86400.00000000  1       1.00000000
   86400.00000000  1       1.00000000
   86400.00000000  1       1.00000000
   86400.00000000  1       1.00000000
   86400.00000000  1       1.00000000
   86400.00000000  1       1.00000000
   86400.00000000  1       1.00000000
   86400.00000000  1       1.00000000
   86400.00000000  1       1.00000000
   86400.00000000  1       1.00000000
   86400.00000000  1       1.00000000
   86400.00000000  1       1.00000000
   86400.00000000  1       1.00000000
   86400.00000000  1       1.00000000
   86400.00000000  1       1.00000000
   86400.00000000  1       1.00000000
   86400.00000000  1       1.00000000
   86400.00000000  1       1.00000000
   86400.00000000  1       1.00000000
   86400.00000000  1       1.00000000
   86400.00000000  1       1.00000000
   86400.00000000  1       1.00000000
   86400.00000000  1       1.00000000
   86400.00000000  1       1.00000000
   86400.00000000  1       1.00000000
   86400.00000000  1       1.00000000
   86400.00000000  1       1.00000000
   86400.00000000  1       1.00000000
   86400.00000000  1       1.00000000
   86400.00000000  1       1.00000000
   86400.00000000  1       1.00000000
   86400.00000000  1       1.00000000
   86400.00000000  1       1.00000000
   86400.00000000  1       1.00000000
   86400.00000000  1       1.00000000
   86400.00000000  1       1.00000000
   86400.00000000  1       1.00000000
   86400.00000000  1       1.00000000
   86400.00000000  1       1.00000000
   86400.00000000  1       1.00000000
   86400.00000000  1       1.00000000
   86400.00000000  1       1.00000000
   86400.00000000  1       1.00000000
   86400.00000000  1       1.00000000
   86400.00000000  1       1.00000000
   86400.00000000  1       1.00000000
   86400.00000000  1       1.00000000
   86400.00000000  1       1.00000000
   86400.00000000  1       1.00000000
   86400.00000000  1       1.00000000
   86400.00000000  1       1.00000000
   86400.00000000  1       1.00000000
   86400.00000000  1       1.00000000
   86400.00000000  1       1.00000000
   86400.00000000  1       1.00000000
   86400.00000000  1       1.00000000
   86400.00000000  1       1.00000000
   86400.00000000  1       1.00000000
   86400.00000000  1       1.00000000
   86400.00000000  1       1.00000000
   86400.00000000  1       1.00000000
   86400.00000000  1       1.00000000
   86400.00000000  1       1.00000000
   86400.00000000  1       1.00000000
   86400.00000000  1       1.00000000
   86400.00000000  1       1.00000000
   86400.00000000  1       1.00000000
   86400.00000000  1       1.00000000
   86400.00000000  1       1.00000000
   86400.00000000  1       1.00000000
   86400.00000000  1       1.00000000
   86400.00000000  1       1.00000000
   86400.00000000  1       1.00000000
   86400.00000000  1       1.00000000
   86400.00000000  1       1.00000000
   86400.00000000  1       1.00000000
   86400.00000000  1       1.00000000
   86400.00000000  1       1.00000000
   86400.00000000  1       1.00000000
   86400.00000000  1       1.00000000
   86400.00000000  1       1.00000000
   86400.00000000  1       1.00000000
   86400.00000000  1       1.00000000
   86400.00000000  1       1.00000000
   86400.00000000  1       1.00000000
   86400.00000000  1       1.00000000
   86400.00000000  1       1.00000000
   86400.00000000  1       1.00000000
   86400.00000000  1       1.00000000
   86400.00000000  1       1.00000000
   86400.00000000  1       1.00000000
   86400.00000000  1       1.00000000
   86400.00000000  1       1.00000000
   86400.00000000  1       1.00000000
   86400.00000000  1       1.00000000
   86400.00000000  1       1.00000000
   86400.00000000  1       1.00000000
   86400.00000000  1       1.00000000
   86400.00000000  1       1.00000000
   86400.00000000  1       1.00000000
   86400.00000000  1       1.00000000
   86400.00000000  1       1.00000000
   86400.00000000  1       1.00000000
   86400.00000000  1       1.00000000
   86400.00000000  1       1.00000000
   86400.00000000  1       1.00000000
   86400.00000000  1       1.00000000
   86400.00000000  1       1.00000000
   86400.00000000  1       1.00000000
   86400.00000000  1       1.00000000
   86400.00000000  1       1.00000000
   86400.00000000  1       1.00000000
   86400.00000000  1       1.00000000
   86400.00000000  1       1.00000000
   86400.00000000  1       1.00000000
   86400.00000000  1       1.00000000
   86400.00000000  1       1.00000000
   86400.00000000  1       1.00000000
   86400.00000000  1       1.00000000
   86400.00000000  1       1.00000000
   86400.00000000  1       1.00000000
   86400.00000000  1       1.00000000
   86400.00000000  1       1.00000000
   86400.00000000  1       1.00000000
   86400.00000000  1       1.00000000
   86400.00000000  1       1.00000000
   86400.00000000  1       1.00000000
   86400.00000000  1       1.00000000
   86400.00000000  1       1.00000000
   86400.00000000  1       1.00000000
   86400.00000000  1       1.00000000
   86400.00000000  1       1.00000000
   86400.00000000  1       1.00000000
   86400.00000000  1       1.00000000
   86400.00000000  1       1.00000000
   86400.00000000  1       1.00000000
   86400.00000000  1       1.00000000
   86400.00000000  1       1.00000000
   86400.00000000  1       1.00000000
   86400.00000000  1       1.00000000
   86400.00000000  1       1.00000000
   86400.00000000  1       1.00000000
   86400.00000000  1       1.00000000
   86400.00000000  1       1.00000000
   86400.00000000  1       1.00000000
   86400.00000000  1       1.00000000
   86400.00000000  1       1.00000000
   86400.00000000  1       1.00000000
   86400.00000000  1       1.00000000
   86400.00000000  1       1.00000000
   86400.00000000  1       1.00000000
   86400.00000000  1       1.00000000
   86400.00000000  1       1.00000000
   86400.00000000  1       1.00000000
   86400.00000000  1       1.00000000
   86400.00000000  1       1.00000000
   86400.00000000  1       1.00000000
   86400.00000000  1       1.00000000
   86400.00000000  1       1.00000000
   86400.00000000  1       1.00000000
   86400.00000000  1       1.00000000
   86400.00000000  1       1.00000000
   86400.00000000  1       1.00000000
   86400.00000000  1       1.00000000
   86400.00000000  1       1.00000000
   86400.00000000  1       1.00000000
   86400.00000000  1       1.00000000
   86400.00000000  1       1.00000000
   86400.00000000  1       1.00000000
   86400.00000000  1       1.00000000
   86400.00000000  1       1.00000000
   86400.00000000  1       1.00000000
   86400.00000000  1       1.00000000
   86400.00000000  1       1.00000000
   86400.00000000  1       1.00000000
   86400.00000000  1       1.00000000
   86400.00000000  1       1.00000000
   86400.00000000  1       1.00000000
   86400.00000000  1       1.00000000
   86400.00000000  1       1.00000000
   86400.00000000  1       1.00000000
   86400.00000000  1       1.00000000
   86400.00000000  1       1.00000000
   86400.00000000  1       1.00000000
   86400.00000000  1       1.00000000
   86400.00000000  1       1.00000000
   86400.00000000  1       1.00000000
   86400.00000000  1       1.00000000
   86400.00000000  1       1.00000000
   86400.00000000  1       1.00000000
   86400.00000000  1       1.00000000
   86400.00000000  1       1.00000000
   86400.00000000  1       1.00000000
   86400.00000000  1       1.00000000
   86400.00000000  1       1.00000000
   86400.00000000  1       1.00000000
   86400.00000000  1       1.00000000
   86400.00000000  1       1.00000000
   86400.00000000  1       1.00000000
   86400.00000000  1       1.00000000
   86400.00000000  1       1.00000000
   86400.00000000  1       1.00000000
   86400.00000000  1       1.00000000
   86400.00000000  1       1.00000000
   86400.00000000  1       1.00000000
   86400.00000000  1       1.00000000
   86400.00000000  1       1.00000000
   86400.00000000  1       1.00000000
   86400.00000000  1       1.00000000
   86400.00000000  1       1.00000000
   86400.00000000  1       1.00000000
   86400.00000000  1       1.00000000
   86400.00000000  1       1.00000000
   86400.00000000  1       1.00000000
   86400.00000000  1       1.00000000
   86400.00000000  1       1.00000000
   86400.00000000  1       1.00000000
   86400.00000000  1       1.00000000
   86400.00000000  1       1.00000000
   86400.00000000  1       1.00000000
   86400.00000000  1       1.00000000
   86400.00000000  1       1.00000000
   86400.00000000  1       1.00000000
   86400.00000000  1       1.00000000
   86400.00000000  1       1.00000000
   86400.00000000  1       1.00000000
   86400.00000000  1       1.00000000
   86400.00000000  1       1.00000000
   86400.00000000  1       1.00000000
   86400.00000000  1       1.00000000
   86400.00000000  1       1.00000000
   86400.00000000  1       1.00000000
   86400.00000000  1       1.00000000
   86400.00000000  1       1.00000000
   86400.00000000  1       1.00000000
   86400.00000000  1       1.00000000
   86400.00000000  1       1.00000000
   86400.00000000  1       1.00000000
   86400.00000000  1       1.00000000
   86400.00000000  1       1.00000000
   86400.00000000  1       1.00000000
   86400.00000000  1       1.00000000
   86400.00000000  1       1.00000000
   86400.00000000  1       1.00000000
   86400.00000000  1       1.00000000
   86400.00000000  1       1.00000000
   86400.00000000  1       1.00000000
   86400.00000000  1       1.00000000
   86400.00000000  1       1.00000000
   86400.00000000  1       1.00000000
   86400.00000000  1       1.00000000
   86400.00000000  1       1.00000000
   86400.00000000  1       1.00000000
   86400.00000000  1       1.00000000
   86400.00000000  1       1.00000000
   86400.00000000  1       1.00000000
   86400.00000000  1       1.00000000
   86400.00000000  1       1.00000000
   86400.00000000  1       1.00000000
   86400.00000000  1       1.00000000
   86400.00000000  1       1.00000000
   86400.00000000  1       1.00000000
   86400.00000000  1       1.00000000
   86400.00000000  1       1.00000000
   86400.00000000  1       1.00000000
   86400.00000000  1       1.00000000
   86400.00000000  1       1.00000000
   86400.00000000  1       1.00000000
   86400.00000000  1       1.00000000
   86400.00000000  1       1.00000000
   86400.00000000  1       1.00000000
   86400.00000000  1       1.00000000
   86400.00000000  1       1.00000000
   86400.00000000  1       1.00000000
   86400.00000000  1       1.00000000
   86400.00000000  1       1.00000000
   86400.00000000  1       1.00000000
   86400.00000000  1       1.00000000
   86400.00000000  1       1.00000000
   86400.00000000  1       1.00000000
   86400.00000000  1       1.00000000
   86400.00000000  1       1.00000000
   86400.00000000  1       1.00000000
   86400.00000000  1       1.00000000
   86400.00000000  1       1.00000000
   86400.00000000  1       1.00000000
   86400.00000000  1       1.00000000
   86400.00000000  1       1.00000000
   86400.00000000  1       1.00000000
   86400.00000000  1       1.00000000
   86400.00000000  1       1.00000000
   86400.00000000  1       1.00000000
   86400.00000000  1       1.00000000
   86400.00000000  1       1.00000000
   86400.00000000  1       1.00000000
   86400.00000000  1       1.00000000
   86400.00000000  1       1.00000000
   86400.00000000  1       1.00000000
   86400.00000000  1       1.00000000
   86400.00000000  1       1.00000000
   86400.00000000  1       1.00000000
   86400.00000000  1       1.00000000
   86400.00000000  1       1.00000000
   86400.00000000  1       1.00000000
   86400.00000000  1       1.00000000
   86400.00000000  1       1.00000000
   86400.00000000  1       1.00000000
   86400.00000000  1       1.00000000
   86400.00000000  1       1.00000000
   86400.00000000  1       1.00000000
   86400.00000000  1       1.00000000
   86400.00000000  1       1.00000000
   86400.00000000  1       1.00000000
   86400.00000000  1       1.00000000
   86400.00000000  1       1.00000000
   86400.00000000  1       1.00000000
   86400.00000000  1       1.00000000
   86400.00000000  1       1.00000000
   86400.00000000  1       1.00000000
   86400.00000000  1       1.00000000
   86400.00000000  1       1.00000000
   86400.00000000  1       1.00000000
   86400.00000000  1       1.00000000
   86400.00000000  1       1.00000000
   86400.00000000  1       1.00000000
   86400.00000000  1       1.00000000
   86400.00000000  1       1.00000000
   86400.00000000  1       1.00000000
   86400.00000000  1       1.00000000
   86400.00000000  1       1.00000000
   86400.00000000  1       1.00000000
   86400.00000000  1       1.00000000
   86400.00000000  1       1.00000000
   86400.00000000  1       1.00000000
   86400.00000000  1       1.00000000
   86400.00000000  1       1.00000000
   86400.00000000  1       1.00000000
   86400.00000000  1       1.00000000
   86400.00000000  1       1.00000000
   86400.00000000  1       1.00000000
   86400.00000000  1       1.00000000
   86400.00000000  1       1.00000000
   86400.00000000  1       1.00000000
   86400.00000000  1       1.00000000
   86400.00000000  1       1.00000000
   86400.00000000  1       1.00000000
   86400.00000000  1       1.00000000
   86400.00000000  1       1.00000000
   86400.00000000  1       1.00000000
   86400.00000000  1       1.00000000
   86400.00000000  1       1.00000000
   86400.00000000  1       1.00000000
   86400.00000000  1       1.00000000
   86400.00000000  1       1.00000000
   86400.00000000  1       1.00000000
   86400.00000000  1       1.00000000
   86400.00000000  1       1.00000000
   86400.00000000  1       1.00000000
   86400.00000000  1       1.00000000
   86400.00000000  1       1.00000000
   86400.00000000  1       1.00000000
   86400.00000000  1       1.00000000
   86400.00000000  1       1.00000000
   86400.00000000  1       1.00000000
   86400.00000000  1       1.00000000
   86400.00000000  1       1.00000000
   86400.00000000  1       1.00000000
   86400.00000000  1       1.00000000
   86400.00000000  1       1.00000000
   86400.00000000  1       1.00000000
   86400.00000000  1       1.00000000
   86400.00000000  1       1.00000000
   86400.00000000  1       1.00000000
   86400.00000000  1       1.00000000
   86400.00000000  1       1.00000000
   86400.00000000  1       1.00000000
   86400.00000000  1       1.00000000
   86400.00000000  1       1.00000000
   86400.00000000  1       1.00000000
   86400.00000000  1       1.00000000
   86400.00000000  1       1.00000000
   86400.00000000  1       1.00000000
   86400.00000000  1       1.00000000
   86400.00000000  1       1.00000000
   86400.00000000  1       1.00000000
   86400.00000000  1       1.00000000
   86400.00000000  1       1.00000000
   86400.00000000  1       1.00000000
   86400.00000000  1       1.00000000
   86400.00000000  1       1.00000000
   86400.00000000  1       1.00000000
   86400.00000000  1       1.00000000
   86400.00000000  1       1.00000000
   86400.00000000  1       1.00000000
   86400.00000000  1       1.00000000
   86400.00000000  1       1.00000000
   86400.00000000  1       1.00000000
   86400.00000000  1       1.00000000
   86400.00000000  1       1.00000000
   86400.00000000  1       1.00000000
   86400.00000000  1       1.00000000
   86400.00000000  1       1.00000000
   86400.00000000  1       1.00000000
   86400.00000000  1       1.00000000
   86400.00000000  1       1.00000000
   86400.00000000  1       1.00000000
   86400.00000000  1       1.00000000
   86400.00000000  1       1.00000000
   86400.00000000  1       1.00000000
   86400.00000000  1       1.00000000
   86400.00000000  1       1.00000000
   86400.00000000  1       1.00000000
   86400.00000000  1       1.00000000
   86400.00000000  1       1.00000000
   86400.00000000  1       1.00000000
   86400.00000000  1       1.00000000
   86400.00000000  1       1.00000000
   86400.00000000  1       1.00000000
   86400.00000000  1       1.00000000
   86400.00000000  1       1.00000000
   86400.00000000  1       1.00000000
   86400.00000000  1       1.00000000
   86400.00000000  1       1.00000000
   86400.00000000  1       1.00000000
   86400.00000000  1       1.00000000
   86400.00000000  1       1.00000000
   86400.00000000  1       1.00000000
   86400.00000000  1       1.00000000
   86400.00000000  1       1.00000000
   86400.00000000  1       1.00000000
   86400.00000000  1       1.00000000
   86400.00000000  1       1.00000000
   86400.00000000  1       1.00000000
   86400.00000000  1       1.00000000
   86400.00000000  1       1.00000000
   86400.00000000  1       1.00000000
   86400.00000000  1       1.00000000
   86400.00000000  1       1.00000000
   86400.00000000  1       1.00000000
   86400.00000000  1       1.00000000
   86400.00000000  1       1.00000000
   86400.00000000  1       1.00000000
   86400.00000000  1       1.00000000
   86400.00000000  1       1.00000000
   86400.00000000  1       1.00000000
   86400.00000000  1       1.00000000
   86400.00000000  1       1.00000000
   86400.00000000  1       1.00000000
   86400.00000000  1       1.00000000
   86400.00000000  1       1.00000000
   86400.00000000  1       1.00000000
   86400.00000000  1       1.00000000
   86400.00000000  1       1.00000000
   86400.00000000  1       1.00000000
   86400.00000000  1       1.00000000
   86400.00000000  1       1.00000000
   86400.00000000  1       1.00000000
   86400.00000000  1       1.00000000
   86400.00000000  1       1.00000000
   86400.00000000  1       1.00000000
   86400.00000000  1       1.00000000
   86400.00000000  1       1.00000000
   86400.00000000  1       1.00000000
   86400.00000000  1       1.00000000
   86400.00000000  1       1.00000000
   86400.00000000  1       1.00000000
   86400.00000000  1       1.00000000
   86400.00000000  1       1.00000000
   86400.00000000  1       1.00000000
   86400.00000000  1       1.00000000
   86400.00000000  1       1.00000000
   86400.00000000  1       1.00000000
   86400.00000000  1       1.00000000
   86400.00000000  1       1.00000000
   86400.00000000  1       1.00000000
   86400.00000000  1       1.00000000
   86400.00000000  1       1.00000000
   86400.00000000  1       1.00000000
   86400.00000000  1       1.00000000
   86400.00000000  1       1.00000000
   86400.00000000  1       1.00000000
   86400.00000000  1       1.00000000
   86400.00000000  1       1.00000000
   86400.00000000  1       1.00000000
   86400.00000000  1       1.00000000
   86400.00000000  1       1.00000000
   86400.00000000  1       1.00000000
   86400.00000000  1       1.00000000
   86400.00000000  1       1.00000000
   86400.00000000  1       1.00000000
   86400.00000000  1       1.00000000
   86400.00000000  1       1.00000000
   86400.00000000  1       1.00000000
   86400.00000000  1       1.00000000
   86400.00000000  1       1.00000000
   86400.00000000  1       1.00000000
   86400.00000000  1       1.00000000
   86400.00000000  1       1.00000000
   86400.00000000  1       1.00000000
   86400.00000000  1       1.00000000
   86400.00000000  1       1.00000000
   86400.00000000  1       1.00000000
   86400.00000000  1       1.00000000
   86400.00000000  1       1.00000000
   86400.00000000  1       1.00000000
   86400.00000000  1       1.00000000
   86400.00000000  1       1.00000000
   86400.00000000  1       1.00000000
   86400.00000000  1       1.00000000
   86400.00000000  1       1.00000000
   86400.00000000  1       1.00000000
   86400.00000000  1       1.00000000
   86400.00000000  1       1.00000000
   86400.00000000  1       1.00000000
   86400.00000000  1       1.00000000
   86400.00000000  1       1.00000000
   86400.00000000  1       1.00000000
   86400.00000000  1       1.00000000
   86400.00000000  1       1.00000000
   86400.00000000  1       1.00000000
   86400.00000000  1       1.00000000
   86400.00000000  1       1.00000000
   86400.00000000  1       1.00000000
   86400.00000000  1       1.00000000
   86400.00000000  1       1.00000000
   86400.00000000  1       1.00000000
   86400.00000000  1       1.00000000
   86400.00000000  1       1.00000000
   86400.00000000  1       1.00000000
   86400.00000000  1       1.00000000
   86400.00000000  1       1.00000000
   86400.00000000  1       1.00000000
   86400.00000000  1       1.00000000
   86400.00000000  1       1.00000000
   86400.00000000  1       1.00000000
   86400.00000000  1       1.00000000
   86400.00000000  1       1.00000000
   86400.00000000  1       1.00000000
   86400.00000000  1       1.00000000
   86400.00000000  1       1.00000000
   86400.00000000  1       1.00000000
   86400.00000000  1       1.00000000
   86400.00000000  1       1.00000000
   86400.00000000  1       1.00000000
   86400.00000000  1       1.00000000
   86400.00000000  1       1.00000000
   86400.00000000  1       1.00000000
   86400.00000000  1       1.00000000
   86400.00000000  1       1.00000000
   86400.00000000  1       1.00000000
   86400.00000000  1       1.00000000
   86400.00000000  1       1.00000000
   86400.00000000  1       1.00000000
   86400.00000000  1       1.00000000
   86400.00000000  1       1.00000000
   86400.00000000  1       1.00000000
   86400.00000000  1       1.00000000
   86400.00000000  1       1.00000000
   86400.00000000  1       1.00000000
   86400.00000000  1       1.00000000
   86400.00000000  1       1.00000000
   86400.00000000  1       1.00000000
   86400.00000000  1       1.00000000
   86400.00000000  1       1.00000000
   86400.00000000  1       1.00000000
   86400.00000000  1       1.00000000
   86400.00000000  1       1.00000000
   86400.00000000  1       1.00000000
   86400.00000000  1       1.00000000
   86400.00000000  1       1.00000000
   86400.00000000  1       1.00000000
   86400.00000000  1       1.00000000
   86400.00000000  1       1.00000000
   86400.00000000  1       1.00000000
   86400.00000000  1       1.00000000
   86400.00000000  1       1.00000000
   86400.00000000  1       1.00000000