# File generated by Flopy version 3.3.6 on 08/05/2022 at 21:26:53.
BEGIN options
  auxiliary  rain_mult
  AUXMULTNAME  rain_mult
  SAVE_FLOWS
  TS6  FILEIN  modelo_Norte.rch.ts
END options

BEGIN dimensions
  MAXBOUND  16088
END dimensions

BEGIN period  1
    OPEN/CLOSE  'rch_0.txt'
END period  1

BEGIN period  2
    OPEN/CLOSE  'rch_1.txt'
END period  2

