# File generated by Flopy version 3.3.4 on 11/19/2021 at 11:49:34.
BEGIN options
  COMPLEXITY  complex
END options

