# File generated by Flopy version 3.3.2 on 02/17/2021 at 10:58:54.
BEGIN options
  XORIGIN  1.10238512E+06
  YORIGIN  1.28136222E+06
END options

BEGIN dimensions
  NLAY  20
  NROW  61
  NCOL  75
END dimensions

BEGIN griddata
  delr
    INTERNAL  FACTOR  1.0
        50.00000000      50.00000000      50.00000000      50.00000000      50.00000000      50.00000000      50.00000000      50.00000000      50.00000000      50.00000000      50.00000000      50.00000000      50.00000000      50.00000000      50.00000000      50.00000000      50.00000000      50.00000000      50.00000000      50.00000000
        50.00000000      50.00000000      50.00000000      50.00000000      50.00000000      50.00000000      50.00000000      50.00000000      50.00000000      50.00000000      50.00000000      50.00000000      50.00000000      50.00000000      50.00000000      50.00000000      50.00000000      50.00000000      50.00000000      50.00000000
        50.00000000      50.00000000      50.00000000      50.00000000      50.00000000      50.00000000      50.00000000      50.00000000      50.00000000      50.00000000      50.00000000      50.00000000      50.00000000      50.00000000      50.00000000      50.00000000      50.00000000      50.00000000      50.00000000      50.00000000
        50.00000000      50.00000000      50.00000000      50.00000000      50.00000000      50.00000000      50.00000000      50.00000000      50.00000000      50.00000000      50.00000000      50.00000000      50.00000000      50.00000000      50.00000000
  delc
    INTERNAL  FACTOR  1.0
        50.00000000      50.00000000      50.00000000      50.00000000      50.00000000      50.00000000      50.00000000      50.00000000      50.00000000      50.00000000      50.00000000      50.00000000      50.00000000      50.00000000      50.00000000      50.00000000      50.00000000      50.00000000      50.00000000      50.00000000
        50.00000000      50.00000000      50.00000000      50.00000000      50.00000000      50.00000000      50.00000000      50.00000000      50.00000000      50.00000000      50.00000000      50.00000000      50.00000000      50.00000000      50.00000000      50.00000000      50.00000000      50.00000000      50.00000000      50.00000000
        50.00000000      50.00000000      50.00000000      50.00000000      50.00000000      50.00000000      50.00000000      50.00000000      50.00000000      50.00000000      50.00000000      50.00000000      50.00000000      50.00000000      50.00000000      50.00000000      50.00000000      50.00000000      50.00000000      50.00000000
        50.00000000
  top
    INTERNAL  FACTOR  1.0
       715.00000000     680.00000000     648.00000000     622.00000000     615.00000000     613.00000000     615.00000000     613.00000000     611.00000000     617.00000000     623.00000000     625.00000000     647.00000000     642.00000000     630.00000000     624.00000000     632.00000000     632.00000000     629.00000000     624.00000000
       623.00000000     625.00000000     633.00000000     634.00000000     635.00000000     638.00000000     643.00000000     641.00000000     660.00000000     685.00000000     703.00000000     719.00000000     744.00000000     760.00000000     764.00000000     761.00000000     764.00000000     769.00000000     778.00000000     781.00000000
       775.00000000     771.00000000     767.00000000     758.00000000     754.00000000     754.00000000     755.00000000     756.00000000     758.00000000     751.00000000     747.00000000     754.00000000     769.00000000     786.00000000     787.00000000     797.00000000     813.00000000     820.00000000     828.00000000     838.00000000
       847.00000000     856.00000000     860.00000000     858.00000000     865.00000000     862.00000000     842.00000000     819.00000000     806.00000000     815.00000000     826.00000000     847.00000000     880.00000000     908.00000000     942.00000000
       733.00000000     707.00000000     680.00000000     653.00000000     633.00000000     624.00000000     632.00000000     636.00000000     639.00000000     654.00000000     662.00000000     677.00000000     670.00000000     651.00000000     628.00000000     621.00000000     622.00000000     624.00000000     625.00000000     624.00000000
       621.00000000     622.00000000     633.00000000     637.00000000     631.00000000     632.00000000     632.00000000     638.00000000     653.00000000     676.00000000     709.00000000     730.00000000     744.00000000     758.00000000     748.00000000     747.00000000     758.00000000     765.00000000     768.00000000     767.00000000
       764.00000000     764.00000000     763.00000000     754.00000000     742.00000000     744.00000000     745.00000000     749.00000000     754.00000000     746.00000000     739.00000000     750.00000000     768.00000000     775.00000000     778.00000000     789.00000000     802.00000000     811.00000000     834.00000000     846.00000000
       854.00000000     859.00000000     856.00000000     853.00000000     852.00000000     853.00000000     846.00000000     823.00000000     806.00000000     819.00000000     826.00000000     853.00000000     882.00000000     912.00000000     935.00000000
       768.00000000     735.00000000     704.00000000     681.00000000     673.00000000     662.00000000     668.00000000     670.00000000     681.00000000     695.00000000     695.00000000     694.00000000     673.00000000     650.00000000     629.00000000     612.26739502     608.00000000     608.67694092     609.69982910     610.55383301
       611.51226807     612.75964355     615.92663574     615.53912354     613.96441650     614.00000000     614.00000000     615.98486328     624.59973145     643.75091553     664.12805176     700.89410400     720.64129639     734.24499512     720.00000000     732.70056152     745.69476318     745.49157715     748.54144287     752.00000000
       750.87725830     748.57489014     747.53540039     740.91351318     733.05883789     728.96136475     732.82562256     732.00378418     735.89758301     734.59112549     719.44232178     731.67779541     740.96008301     739.55444336     761.62176514     785.27410889     791.03466797     807.80920410     823.96588135     839.54687500
       848.63903809     850.00000000     837.49279785     832.00000000     833.78247070     845.56811523     834.00000000     812.00000000     799.00000000     811.00000000     828.00000000     851.00000000     872.00000000     898.00000000     924.00000000
       791.00000000     754.00000000     716.00000000     699.00000000     700.00000000     702.00000000     703.00000000     703.00000000     714.00000000     717.00000000     706.00000000     686.00000000     664.00000000     642.00000000     629.00000000     628.76776123     613.18200684     608.00000000     609.96929932     610.00000000
       610.75335693     610.43804932     611.53155518     612.00000000     614.18560791     612.00000000     614.17938232     616.00000000     618.72802734     616.00000000     634.74835205     676.78887939     695.47308350     695.83941650     698.61114502     722.09881592     745.66339111     758.69409180     744.24987793     741.39495850
       744.00000000     742.00000000     740.00000000     734.68090820     727.25451660     718.64141846     723.78210449     730.86987305     735.93377686     734.48663330     724.53765869     710.00000000     711.92980957     742.03808594     772.00000000     772.56427002     787.14611816     805.58087158     823.93640137     842.88049316
       855.56890869     848.77301025     828.95458984     815.70617676     823.13153076     841.76800537     830.00000000     800.00000000     792.00000000     814.00000000     827.00000000     843.00000000     859.00000000     888.00000000     912.00000000
       811.00000000     779.00000000     729.00000000     720.00000000     723.00000000     725.00000000     727.00000000     718.00000000     717.00000000     713.00000000     702.00000000     679.00000000     659.00000000     631.00000000     607.12622070     626.60583496     625.23828125     615.46783447     608.94525146     609.88446045
       610.00000000     612.30059814     618.00000000     616.13702393     617.50854492     619.01757812     621.25677490     624.00000000     624.86010742     624.53588867     620.35699463     659.84216309     655.17718506     682.63110352     707.14172363     733.19854736     750.06695557     757.51629639     754.34381104     724.00000000
       730.33453369     730.56457520     727.72082520     731.16461182     720.16717529     713.38568115     720.67010498     727.66687012     730.00000000     730.00000000     729.96759033     702.79138184     721.14294434     736.83642578     749.82250977     769.44250488     789.27069092     809.09448242     826.11254883     846.25579834
       851.90118408     841.08148193     824.42529297     812.23309326     811.18737793     830.22247314     813.00000000     790.00000000     793.00000000     808.00000000     823.00000000     837.00000000     854.00000000     873.00000000     902.00000000
       811.00000000     782.00000000     753.00000000     745.00000000     743.00000000     740.00000000     731.00000000     711.00000000     704.00000000     699.00000000     687.00000000     666.00000000     639.00000000     622.00000000     606.10638428     608.00000000     621.69659424     624.00000000     615.39569092     611.91711426
       612.26745605     613.93511963     616.16857910     616.79443359     617.57708740     621.33489990     629.24707031     631.42590332     629.62072754     625.45318604     616.00000000     632.00000000     659.61450195     704.52270508     723.67785645     745.80541992     755.76989746     749.49426270     734.30560303     722.16107178
       712.88977051     715.76416016     718.35168457     724.00000000     715.81390381     706.00000000     717.00799561     723.08099365     724.70751953     717.79791260     713.68835449     704.11431885     729.56060791     749.09466553     763.75384521     777.25946045     784.02368164     807.45684814     829.65002441     842.11322021
       838.72888184     828.26843262     813.71667480     803.31542969     811.87969971     815.92388916     794.00000000     784.00000000     791.00000000     817.00000000     819.00000000     827.00000000     845.00000000     870.00000000     900.00000000
       799.00000000     790.00000000     780.00000000     766.00000000     756.00000000     749.00000000     734.00000000     713.00000000     695.00000000     682.00000000     670.00000000     648.00000000     630.00000000     621.00000000     616.00000000     608.00000000     609.86499023     619.75543213     622.00000000     616.00000000
       616.21807861     616.42675781     616.80194092     617.41467285     618.00000000     624.33007812     634.14532471     642.66247559     638.91479492     632.63250732     619.91113281     638.99114990     678.62805176     709.77502441     735.11175537     744.00000000     744.43292236     739.00720215     725.39007568     712.85247803
       699.59405518     708.01977539     706.79364014     714.79791260     702.81298828     709.26824951     712.69317627     714.49133301     718.64074707     704.50592041     706.31799316     698.69201660     723.78698730     741.78710938     760.00000000     773.79650879     788.40979004     805.28405762     823.81115723     830.92791748
       824.78698730     812.66278076     804.00000000     790.85321045     808.06365967     799.00000000     782.00000000     782.00000000     792.00000000     822.00000000     829.00000000     839.00000000     846.00000000     860.00000000     891.00000000
       784.00000000     776.00000000     773.00000000     773.00000000     764.00000000     750.00000000     729.00000000     714.00000000     695.00000000     674.00000000     656.00000000     635.00000000     623.00000000     620.00000000     619.00000000     608.91607666     609.34185791     610.02398682     616.26177979     616.76940918
       617.04565430     617.24951172     617.51251221     617.96765137     623.05285645     629.12469482     639.51745605     644.00000000     642.20373535     636.07122803     622.88543701     629.46234131     668.00604248     708.34899902     738.21325684     744.00000000     734.17596436     730.24731445     719.96960449     708.95935059
       694.35388184     698.00000000     701.85119629     700.27386475     697.59484863     693.15411377     703.82202148     700.96844482     706.63018799     698.00000000     693.10186768     707.04290771     718.75518799     739.27856445     752.53222656     760.00000000     781.28686523     802.88208008     818.11639404     819.76196289
       813.17657471     800.65637207     796.19195557     788.53094482     804.00000000     791.00000000     778.00000000     785.00000000     809.00000000     830.00000000     849.00000000     857.00000000     865.00000000     876.00000000     895.00000000
       769.00000000     756.00000000     756.00000000     759.00000000     756.00000000     732.00000000     716.00000000     699.00000000     683.00000000     660.00000000     638.00000000     624.00000000     621.00000000     620.00000000     620.00000000     609.32330322     610.00000000     610.00000000     611.08221436     616.85620117
       618.00000000     618.39208984     620.00000000     621.23657227     623.43713379     630.61846924     644.71514893     645.49816895     646.00000000     644.34509277     626.12188721     623.96844482     659.11376953     704.04473877     733.18115234     739.46716309     720.86370850     707.33093262     709.97625732     705.16796875
       691.59405518     685.26995850     700.49261475     707.21453857     696.35150146     684.03448486     694.15435791     694.42901611     698.00000000     691.66809082     691.96801758     709.08703613     736.00000000     748.00000000     752.77691650     768.52221680     789.32739258     808.00000000     811.61859131     808.19653320
       804.30554199     793.92657471     782.00000000     789.43273926     804.00000000     792.00000000     782.00000000     801.00000000     818.00000000     840.00000000     862.00000000     874.00000000     880.00000000     881.00000000     881.00000000
       763.00000000     744.00000000     738.00000000     742.00000000     736.00000000     719.00000000     698.00000000     681.00000000     668.00000000     648.00000000     626.00000000     621.00000000     620.00000000     620.00000000     608.00000000     608.37280273     610.00000000     610.00000000     612.79925537     616.91363525
       618.42926025     620.00000000     620.80895996     622.57720947     624.59130859     638.73187256     652.00000000     652.00000000     650.05792236     645.11791992     628.78350830     620.75714111     648.03344727     688.17932129     722.06121826     728.37322998     708.94390869     697.91943359     701.51159668     694.95062256
       679.15563965     688.74450684     706.78625488     706.41613770     694.84045410     678.91925049     687.52191162     688.73004150     690.92852783     687.22247314     717.15521240     732.66455078     741.27087402     749.32672119     760.00000000     767.49829102     779.67541504     795.54144287     801.34918213     798.22912598
       792.88867188     786.06054688     774.26287842     791.45837402     800.73999023     786.00000000     776.00000000     788.00000000     816.00000000     843.00000000     862.00000000     879.00000000     882.00000000     876.00000000     867.00000000
       760.00000000     740.00000000     728.00000000     723.00000000     718.00000000     708.00000000     685.00000000     668.00000000     653.00000000     631.00000000     621.00000000     619.00000000     618.00000000     618.00000000     608.00000000     608.51190186     611.63092041     610.00000000     612.00000000     617.40081787
       618.16577148     620.00000000     621.65527344     623.86480713     625.70153809     652.14758301     654.44110107     654.73052979     648.85205078     646.15130615     633.37445068     622.98284912     640.60552979     671.09826660     707.74133301     713.76354980     693.36694336     681.33282471     687.44451904     681.49249268
       670.00000000     686.00000000     700.00000000     699.18957520     693.76629639     678.00000000     684.00000000     682.19946289     679.17651367     685.86303711     724.63519287     740.00000000     745.34075928     760.31805420     760.00000000     770.04742432     775.52374268     783.58813477     786.99804688     784.66864014
       782.30407715     774.82818604     774.56481934     793.19268799     792.00000000     777.00000000     772.00000000     777.00000000     822.00000000     841.00000000     861.00000000     874.00000000     874.00000000     865.00000000     850.00000000
       763.00000000     750.00000000     726.00000000     710.00000000     701.00000000     689.00000000     672.00000000     662.00000000     650.00000000     631.00000000     619.00000000     620.00000000     620.00000000     620.00000000     608.09057617     608.64593506     610.00000000     610.00000000     616.87542725     618.40069580
       619.34832764     619.86828613     622.15338135     624.49664307     637.64837646     657.38323975     658.00000000     658.00000000     657.24768066     647.32452393     643.87786865     624.00000000     626.68560791     649.19348145     682.18304443     696.38250732     679.95507812     662.00000000     668.42742920     666.34967041
       678.81805420     685.91094971     692.30401611     690.88110352     688.87005615     686.00000000     666.57403564     683.43859863     674.62579346     699.16308594     730.26501465     756.75140381     766.00000000     764.43548584     766.63745117     773.35974121     772.00000000     774.72485352     774.29541016     777.68841553
       775.06195068     759.70025635     777.73632812     793.59906006     784.00000000     772.00000000     769.00000000     783.00000000     812.00000000     838.00000000     858.00000000     865.00000000     859.00000000     855.00000000     840.00000000
       757.00000000     745.00000000     726.00000000     708.00000000     694.00000000     686.00000000     682.00000000     671.00000000     658.00000000     632.00000000     617.00000000     622.00000000     621.00000000     621.00000000     608.24633789     608.00000000     610.37115479     610.94158936     618.66735840     620.00000000
       620.00000000     620.44885254     622.93048096     625.40008545     639.43029785     660.74487305     668.85388184     672.21917725     663.86267090     650.12597656     646.18395996     628.90148926     624.00000000     624.00000000     647.82330322     665.58618164     661.56823730     657.17297363     658.83587646     662.76336670
       668.28845215     677.51446533     677.92425537     674.64208984     674.26629639     683.48901367     663.55816650     667.47375488     664.44372559     703.96813965     727.54718018     745.94775391     761.39520264     762.48864746     772.19836426     776.86163330     774.33203125     772.00000000     765.93078613     766.85894775
       759.95458984     762.71185303     778.00000000     782.70770264     766.00000000     761.00000000     771.00000000     789.00000000     821.00000000     836.00000000     859.00000000     859.00000000     855.00000000     857.00000000     836.00000000
       742.00000000     732.00000000     720.00000000     705.00000000     700.00000000     693.00000000     686.00000000     676.00000000     655.00000000     624.00000000     620.00000000     623.00000000     622.00000000     622.00000000     608.37792969     608.00000000     612.00000000     612.63482666     619.09631348     620.00000000
       620.97039795     622.38195801     624.38720703     626.00000000     640.30706787     664.00000000     673.76245117     680.00000000     679.93530273     661.32177734     647.36035156     632.70709229     628.00000000     628.00000000     625.48028564     645.50030518     651.15826416     650.89556885     656.21191406     656.79296875
       658.66235352     662.47326660     660.65173340     663.08489990     663.88275146     668.16986084     656.00000000     657.50164795     663.79553223     686.68798828     710.00195312     728.52819824     743.93585205     762.51489258     776.45770264     779.75994873     778.00000000     768.74462891     762.72698975     759.52972412
       744.00000000     752.28845215     765.21575928     763.00000000     753.00000000     757.00000000     773.00000000     805.00000000     824.00000000     835.00000000     852.00000000     852.00000000     858.00000000     860.00000000     838.00000000
       723.00000000     724.00000000     716.00000000     705.00000000     693.00000000     680.00000000     675.00000000     668.00000000     648.00000000     624.00000000     621.00000000     622.00000000     621.00000000     623.00000000     608.43005371     608.00000000     612.00000000     615.23608398     620.00000000     621.67492676
       623.09655762     624.50262451     626.00000000     627.77691650     651.03942871     666.95672607     676.81555176     682.33715820     685.34796143     670.96789551     665.63317871     648.04382324     630.14251709     628.00000000     627.63116455     640.78479004     646.08508301     645.50695801     651.38488770     652.16125488
       653.98767090     654.83551025     654.11871338     655.49700928     656.86132812     656.00000000     656.00000000     656.00000000     661.61102295     676.90539551     692.82238770     720.57458496     747.05242920     761.91680908     772.39648438     773.37561035     770.30346680     765.17694092     760.02111816     748.00000000
       737.46228027     735.63989258     744.00000000     745.00000000     744.00000000     752.00000000     789.00000000     818.00000000     825.00000000     833.00000000     843.00000000     840.00000000     851.00000000     856.00000000     843.00000000
       710.00000000     705.00000000     699.00000000     692.00000000     683.00000000     675.00000000     661.00000000     651.00000000     642.00000000     625.00000000     624.00000000     623.00000000     622.00000000     624.00000000     608.48217773     608.00000000     612.00000000     618.66845703     620.00000000     621.91259766
       624.35766602     626.77703857     629.17736816     633.17022705     654.00097656     667.61724854     680.64660645     687.15966797     688.95196533     686.00000000     678.92218018     667.85968018     637.74243164     631.25732422     628.94738770     632.06506348     637.23040771     637.62145996     640.62890625     650.94604492
       651.32177734     651.32635498     650.51763916     652.20306396     655.47967529     655.92126465     656.00000000     658.55322266     664.00000000     670.00000000     686.18786621     709.38653564     734.64068604     758.00000000     765.51531982     763.24145508     762.59204102     758.00000000     756.59832764     752.00000000
       726.35803223     723.22521973     733.00000000     736.00000000     749.00000000     773.00000000     796.00000000     807.00000000     809.00000000     814.00000000     833.00000000     835.00000000     847.00000000     854.00000000     846.00000000
       702.00000000     690.00000000     685.00000000     679.00000000     671.00000000     667.00000000     661.00000000     644.00000000     635.00000000     624.00000000     624.00000000     625.00000000     622.00000000     622.00000000     608.53424072     609.62133789     612.81347656     620.00000000     621.63891602     624.47900391
       626.82733154     635.27392578     648.00000000     649.00415039     654.33905029     669.42083740     691.44781494     695.39678955     695.61303711     694.54150391     689.13403320     685.13885498     663.90545654     635.73303223     627.51354980     632.00000000     635.27624512     635.68041992     636.97735596     645.04980469
       645.39837646     645.14587402     645.78570557     647.11267090     651.24993896     653.77734375     656.00000000     659.77362061     662.82153320     669.22296143     683.93005371     704.52856445     728.78759766     750.03723145     753.90557861     749.58892822     750.71502686     749.73089600     746.49420166     744.38873291
       735.75592041     728.00000000     725.00000000     733.00000000     759.00000000     774.00000000     787.00000000     795.00000000     798.00000000     799.00000000     815.00000000     838.00000000     855.00000000     855.00000000     843.00000000
       695.00000000     688.00000000     682.00000000     672.00000000     665.00000000     661.00000000     655.00000000     643.00000000     634.00000000     630.00000000     626.00000000     625.00000000     625.00000000     623.00000000     609.35748291     610.00000000     614.99676514     620.00000000     623.72863770     629.40643311
       631.17480469     632.91796875     639.88488770     648.07989502     654.01184082     669.03643799     687.35205078     703.19152832     709.92950439     708.45050049     703.65502930     698.38220215     686.00000000     653.81378174     628.00000000     632.00000000     633.32208252     633.84167480     635.00091553     638.00000000
       640.00000000     640.76385498     642.12207031     641.66424561     645.76336670     650.34051514     655.53277588     657.40594482     664.39782715     669.15533447     683.11041260     715.41406250     741.20373535     748.12463379     746.45214844     744.71337891     744.75775146     743.92041016     739.06927490     743.83514404
       747.00000000     727.00000000     722.00000000     738.00000000     747.00000000     764.00000000     771.00000000     780.00000000     791.00000000     812.00000000     832.00000000     850.00000000     856.00000000     855.00000000     843.00000000
       687.00000000     683.00000000     678.00000000     669.00000000     661.00000000     652.00000000     649.00000000     637.00000000     631.00000000     627.00000000     625.00000000     627.00000000     625.00000000     623.00000000     610.00000000     610.00000000     621.52374268     628.36102295     630.49481201     634.58160400
       635.02862549     638.00000000     648.00000000     648.80389404     648.00000000     664.00000000     683.11621094     695.60247803     703.09539795     711.45526123     717.76324463     713.44726562     702.00000000     669.15405273     634.33453369     632.00000000     632.00000000     632.00000000     632.00000000     632.94830322
       632.00000000     638.00000000     638.00000000     638.37414551     638.35180664     638.00000000     645.19604492     651.21569824     663.19122314     666.49938965     684.52514648     712.07714844     739.43463135     746.44085693     745.01330566     741.20123291     738.83666992     740.02825928     731.05688477     741.29199219
       743.00000000     724.00000000     716.00000000     733.00000000     744.00000000     765.00000000     775.00000000     790.00000000     803.00000000     828.00000000     849.00000000     857.00000000     859.00000000     855.00000000     840.00000000
       682.00000000     676.00000000     669.00000000     664.00000000     653.00000000     646.00000000     641.00000000     632.00000000     629.00000000     625.00000000     625.00000000     627.00000000     623.00000000     609.98614502     610.00000000     610.00000000     620.39379883     638.00000000     638.08496094     638.00000000
       638.00000000     639.15069580     644.00000000     659.53375244     656.71435547     670.22851562     685.29632568     696.58190918     703.00537109     712.25762939     718.17230225     725.99121094     715.97058105     688.00891113     661.44219971     639.70721436     638.97521973     636.06170654     635.45654297     634.96514893
       638.06372070     638.73443604     640.36981201     639.95953369     639.67706299     642.21679688     638.00000000     644.50543213     651.24523926     666.00000000     689.89965820     718.02593994     727.76977539     740.35656738     739.57781982     734.42852783     727.18304443     731.18041992     726.28564453     738.52673340
       744.00000000     722.00000000     714.00000000     722.00000000     737.00000000     785.00000000     799.00000000     812.00000000     827.00000000     834.00000000     845.00000000     850.00000000     854.00000000     853.00000000     840.00000000
       683.00000000     670.00000000     662.00000000     656.00000000     649.00000000     642.00000000     635.00000000     625.00000000     625.00000000     623.00000000     624.00000000     625.00000000     621.00000000     610.17883301     611.08770752     612.00000000     612.00000000     638.02325439     643.17913818     643.02972412
       635.48999023     639.16271973     644.80615234     665.83770752     664.54895020     672.30334473     688.09692383     694.12420654     705.39617920     716.60803223     733.84527588     737.14324951     727.57012939     699.79144287     678.35528564     659.01745605     659.21838379     648.03723145     646.04248047     643.92437744
       643.77203369     643.16558838     645.27368164     646.74450684     644.98992920     648.00000000     648.00000000     640.00000000     641.49279785     667.28680420     675.62908936     705.31079102     733.51580811     730.72497559     731.30261230     716.75854492     723.72076416     719.37329102     735.05737305     736.64221191
       732.00000000     715.00000000     711.00000000     729.00000000     754.00000000     785.00000000     796.00000000     813.00000000     827.00000000     828.00000000     835.00000000     843.00000000     849.00000000     845.00000000     837.00000000