# File generated by Flopy version 3.3.2 on 08/26/2021 at 07:19:30.
BEGIN options
  PRINT_INPUT
  PRINT_FLOWS
  SAVE_FLOWS
END options

BEGIN dimensions
  MAXBOUND  13
END dimensions

BEGIN period  1135
  1 15 17     762.57098389  7.50205104E-06
END period  1135

BEGIN period  1146
  1 15 17     762.57098389  7.50205104E-06
  1 15 18     781.28497314  7.50205104E-06
END period  1146

BEGIN period  1160
  1 15 17     762.57098389  7.50205104E-06
  1 15 18     781.28497314  7.50205104E-06
  1 15 19     776.03497314  7.50205104E-06
END period  1160

BEGIN period  1175
  1 15 17     762.57098389  7.50205104E-06
  1 15 18     781.28497314  7.50205104E-06
  1 15 19     776.03497314  7.50205104E-06
  1 14 20     776.09802246  7.50205104E-06
  2 14 20     752.10150146  7.50205104E-06
END period  1175

BEGIN period  1192
  1 15 17     762.57098389  7.50205104E-06
  1 15 18     781.28497314  7.50205104E-06
  1 15 19     776.03497314  7.50205104E-06
  1 14 20     776.09802246  7.50205104E-06
  2 14 20     752.10150146  7.50205104E-06
  1 14 21     787.38598633  7.50205104E-06
  2 14 21     761.98999023  7.50205104E-06
END period  1192

BEGIN period  1210
  1 15 17     762.57098389  7.50205104E-06
  1 15 18     781.28497314  7.50205104E-06
  1 15 19     776.03497314  7.50205104E-06
  1 14 20     776.09802246  7.50205104E-06
  2 14 20     752.10150146  7.50205104E-06
  1 14 21     787.38598633  7.50205104E-06
  2 14 21     761.98999023  7.50205104E-06
  1 14 22     797.79699707  7.50205104E-06
  2 14 22     788.90249634  7.50205104E-06
  3 14 22     780.00799561  7.50205104E-06
END period  1210

BEGIN period  1230
  1 15 17     762.57098389  7.50205104E-06
  1 15 18     781.28497314  7.50205104E-06
  1 15 19     776.03497314  7.50205104E-06
  1 14 20     776.09802246  7.50205104E-06
  2 14 20     752.10150146  7.50205104E-06
  1 14 21     787.38598633  7.50205104E-06
  2 14 21     761.98999023  7.50205104E-06
  1 14 22     797.79699707  7.50205104E-06
  2 14 22     788.90249634  7.50205104E-06
  3 14 22     780.00799561  7.50205104E-06
  1 14 23     823.50189209  7.50205104E-06
  2 14 23     802.61093140  7.50205104E-06
  3 14 23     781.71997070  7.50205104E-06
END period  1230

