# File generated by Flopy version 3.3.2 on 05/28/2021 at 22:47:30.
BEGIN griddata
  strt  LAYERED
    INTERNAL  FACTOR  1.0
         694.00000000     613.00000000     610.00000000     610.00000000     619.00000000     614.00000000     621.00000000     620.00000000     676.00000000     658.00000000     638.00000000     642.00000000     645.00000000     654.00000000     663.00000000     706.00000000     730.00000000     770.00000000     781.00000000     785.00000000
         784.00000000     768.00000000     767.00000000     766.00000000     772.00000000     769.00000000     763.00000000     761.00000000     772.00000000     787.00000000     793.00000000     795.00000000     809.00000000     816.00000000     824.00000000     824.00000000     828.00000000     836.00000000     850.00000000     862.00000000
         833.00000000     811.00000000     830.00000000     874.00000000
         694.00000000     613.00000000     610.00000000     610.00000000     619.00000000     614.00000000     621.00000000     620.00000000     676.00000000     658.00000000     638.00000000     642.00000000     645.00000000     654.00000000     663.00000000     706.00000000     730.00000000     770.00000000     781.00000000     785.00000000
         784.00000000     768.00000000     767.00000000     766.00000000     772.00000000     769.00000000     763.00000000     761.00000000     772.00000000     787.00000000     793.00000000     795.00000000     809.00000000     816.00000000     824.00000000     824.00000000     828.00000000     836.00000000     850.00000000     862.00000000
         833.00000000     811.00000000     830.00000000     874.00000000
         694.00000000     613.00000000     610.00000000     610.00000000     619.00000000     614.00000000     621.00000000     620.00000000     676.00000000     658.00000000     638.00000000     642.00000000     645.00000000     654.00000000     663.00000000     706.00000000     730.00000000     770.00000000     781.00000000     785.00000000
         784.00000000     768.00000000     767.00000000     766.00000000     772.00000000     769.00000000     763.00000000     761.00000000     772.00000000     787.00000000     793.00000000     795.00000000     809.00000000     816.00000000     824.00000000     824.00000000     828.00000000     836.00000000     850.00000000     862.00000000
         833.00000000     811.00000000     830.00000000     874.00000000
         694.00000000     613.00000000     610.00000000     610.00000000     619.00000000     614.00000000     621.00000000     620.00000000     676.00000000     658.00000000     638.00000000     642.00000000     645.00000000     654.00000000     663.00000000     706.00000000     730.00000000     770.00000000     781.00000000     785.00000000
         784.00000000     768.00000000     767.00000000     766.00000000     772.00000000     769.00000000     763.00000000     761.00000000     772.00000000     787.00000000     793.00000000     795.00000000     809.00000000     816.00000000     824.00000000     824.00000000     828.00000000     836.00000000     850.00000000     862.00000000
         833.00000000     811.00000000     830.00000000     874.00000000
         694.00000000     613.00000000     610.00000000     610.00000000     619.00000000     614.00000000     621.00000000     620.00000000     676.00000000     658.00000000     638.00000000     642.00000000     645.00000000     654.00000000     663.00000000     706.00000000     730.00000000     770.00000000     781.00000000     785.00000000
         784.00000000     768.00000000     767.00000000     766.00000000     772.00000000     769.00000000     763.00000000     761.00000000     772.00000000     787.00000000     793.00000000     795.00000000     809.00000000     816.00000000     824.00000000     824.00000000     828.00000000     836.00000000     850.00000000     862.00000000
         833.00000000     811.00000000     830.00000000     874.00000000
         694.00000000     613.00000000     610.00000000     610.00000000     619.00000000     614.00000000     621.00000000     620.00000000     676.00000000     658.00000000     638.00000000     642.00000000     645.00000000     654.00000000     663.00000000     706.00000000     730.00000000     770.00000000     781.00000000     785.00000000
         784.00000000     768.00000000     767.00000000     766.00000000     772.00000000     769.00000000     763.00000000     761.00000000     772.00000000     787.00000000     793.00000000     795.00000000     809.00000000     816.00000000     824.00000000     824.00000000     828.00000000     836.00000000     850.00000000     862.00000000
         833.00000000     811.00000000     830.00000000     874.00000000
         694.00000000     613.00000000     610.00000000     610.00000000     619.00000000     614.00000000     621.00000000     620.00000000     676.00000000     658.00000000     638.00000000     642.00000000     645.00000000     654.00000000     663.00000000     706.00000000     730.00000000     770.00000000     781.00000000     785.00000000
         784.00000000     768.00000000     767.00000000     766.00000000     772.00000000     769.00000000     763.00000000     761.00000000     772.00000000     787.00000000     793.00000000     795.00000000     809.00000000     816.00000000     824.00000000     824.00000000     828.00000000     836.00000000     850.00000000     862.00000000
         833.00000000     811.00000000     830.00000000     874.00000000
         694.00000000     613.00000000     610.00000000     610.00000000     619.00000000     614.00000000     621.00000000     620.00000000     676.00000000     658.00000000     638.00000000     642.00000000     645.00000000     654.00000000     663.00000000     706.00000000     730.00000000     770.00000000     781.00000000     785.00000000
         784.00000000     768.00000000     767.00000000     766.00000000     772.00000000     769.00000000     763.00000000     761.00000000     772.00000000     787.00000000     793.00000000     795.00000000     809.00000000     816.00000000     824.00000000     824.00000000     828.00000000     836.00000000     850.00000000     862.00000000
         833.00000000     811.00000000     830.00000000     874.00000000
         694.00000000     613.00000000     610.00000000     610.00000000     619.00000000     614.00000000     621.00000000     620.00000000     676.00000000     658.00000000     638.00000000     642.00000000     645.00000000     654.00000000     663.00000000     706.00000000     730.00000000     770.00000000     781.00000000     785.00000000
         784.00000000     768.00000000     767.00000000     766.00000000     772.00000000     769.00000000     763.00000000     761.00000000     772.00000000     787.00000000     793.00000000     795.00000000     809.00000000     816.00000000     824.00000000     824.00000000     828.00000000     836.00000000     850.00000000     862.00000000
         833.00000000     811.00000000     830.00000000     874.00000000
         694.00000000     613.00000000     610.00000000     610.00000000     619.00000000     614.00000000     621.00000000     620.00000000     676.00000000     658.00000000     638.00000000     642.00000000     645.00000000     654.00000000     663.00000000     706.00000000     730.00000000     770.00000000     781.00000000     785.00000000
         784.00000000     768.00000000     767.00000000     766.00000000     772.00000000     769.00000000     763.00000000     761.00000000     772.00000000     787.00000000     793.00000000     795.00000000     809.00000000     816.00000000     824.00000000     824.00000000     828.00000000     836.00000000     850.00000000     862.00000000
         833.00000000     811.00000000     830.00000000     874.00000000
         694.00000000     613.00000000     610.00000000     610.00000000     619.00000000     614.00000000     621.00000000     620.00000000     676.00000000     658.00000000     638.00000000     642.00000000     645.00000000     654.00000000     663.00000000     706.00000000     730.00000000     770.00000000     781.00000000     785.00000000
         784.00000000     768.00000000     767.00000000     766.00000000     772.00000000     769.00000000     763.00000000     761.00000000     772.00000000     787.00000000     793.00000000     795.00000000     809.00000000     816.00000000     824.00000000     824.00000000     828.00000000     836.00000000     850.00000000     862.00000000
         833.00000000     811.00000000     830.00000000     874.00000000
         694.00000000     613.00000000     610.00000000     610.00000000     619.00000000     614.00000000     621.00000000     620.00000000     676.00000000     658.00000000     638.00000000     642.00000000     645.00000000     654.00000000     663.00000000     706.00000000     730.00000000     770.00000000     781.00000000     785.00000000
         784.00000000     768.00000000     767.00000000     766.00000000     772.00000000     769.00000000     763.00000000     761.00000000     772.00000000     787.00000000     793.00000000     795.00000000     809.00000000     816.00000000     824.00000000     824.00000000     828.00000000     836.00000000     850.00000000     862.00000000
         833.00000000     811.00000000     830.00000000     874.00000000
         694.00000000     613.00000000     610.00000000     610.00000000     619.00000000     614.00000000     621.00000000     620.00000000     676.00000000     658.00000000     638.00000000     642.00000000     645.00000000     654.00000000     663.00000000     706.00000000     730.00000000     770.00000000     781.00000000     785.00000000
         784.00000000     768.00000000     767.00000000     766.00000000     772.00000000     769.00000000     763.00000000     761.00000000     772.00000000     787.00000000     793.00000000     795.00000000     809.00000000     816.00000000     824.00000000     824.00000000     828.00000000     836.00000000     850.00000000     862.00000000
         833.00000000     811.00000000     830.00000000     874.00000000
         694.00000000     613.00000000     610.00000000     610.00000000     619.00000000     614.00000000     621.00000000     620.00000000     676.00000000     658.00000000     638.00000000     642.00000000     645.00000000     654.00000000     663.00000000     706.00000000     730.00000000     770.00000000     781.00000000     785.00000000
         784.00000000     768.00000000     767.00000000     766.00000000     772.00000000     769.00000000     763.00000000     761.00000000     772.00000000     787.00000000     793.00000000     795.00000000     809.00000000     816.00000000     824.00000000     824.00000000     828.00000000     836.00000000     850.00000000     862.00000000
         833.00000000     811.00000000     830.00000000     874.00000000
         694.00000000     613.00000000     610.00000000     610.00000000     619.00000000     614.00000000     621.00000000     620.00000000     676.00000000     658.00000000     638.00000000     642.00000000     645.00000000     654.00000000     663.00000000     706.00000000     730.00000000     770.00000000     781.00000000     785.00000000
         784.00000000     768.00000000     767.00000000     766.00000000     772.00000000     769.00000000     763.00000000     761.00000000     772.00000000     787.00000000     793.00000000     795.00000000     809.00000000     816.00000000     824.00000000     824.00000000     828.00000000     836.00000000     850.00000000     862.00000000
         833.00000000     811.00000000     830.00000000     874.00000000
         694.00000000     613.00000000     610.00000000     610.00000000     619.00000000     614.00000000     621.00000000     620.00000000     676.00000000     658.00000000     638.00000000     642.00000000     645.00000000     654.00000000     663.00000000     706.00000000     730.00000000     770.00000000     781.00000000     785.00000000
         784.00000000     768.00000000     767.00000000     766.00000000     772.00000000     769.00000000     763.00000000     761.00000000     772.00000000     787.00000000     793.00000000     795.00000000     809.00000000     816.00000000     824.00000000     824.00000000     828.00000000     836.00000000     850.00000000     862.00000000
         833.00000000     811.00000000     830.00000000     874.00000000
         694.00000000     613.00000000     610.00000000     610.00000000     619.00000000     614.00000000     621.00000000     620.00000000     676.00000000     658.00000000     638.00000000     642.00000000     645.00000000     654.00000000     663.00000000     706.00000000     730.00000000     770.00000000     781.00000000     785.00000000
         784.00000000     768.00000000     767.00000000     766.00000000     772.00000000     769.00000000     763.00000000     761.00000000     772.00000000     787.00000000     793.00000000     795.00000000     809.00000000     816.00000000     824.00000000     824.00000000     828.00000000     836.00000000     850.00000000     862.00000000
         833.00000000     811.00000000     830.00000000     874.00000000
         694.00000000     613.00000000     610.00000000     610.00000000     619.00000000     614.00000000     621.00000000     620.00000000     676.00000000     658.00000000     638.00000000     642.00000000     645.00000000     654.00000000     663.00000000     706.00000000     730.00000000     770.00000000     781.00000000     785.00000000
         784.00000000     768.00000000     767.00000000     766.00000000     772.00000000     769.00000000     763.00000000     761.00000000     772.00000000     787.00000000     793.00000000     795.00000000     809.00000000     816.00000000     824.00000000     824.00000000     828.00000000     836.00000000     850.00000000     862.00000000
         833.00000000     811.00000000     830.00000000     874.00000000
         694.00000000     613.00000000     610.00000000     610.00000000     619.00000000     614.00000000     621.00000000     620.00000000     676.00000000     658.00000000     638.00000000     642.00000000     645.00000000     654.00000000     663.00000000     706.00000000     730.00000000     770.00000000     781.00000000     785.00000000
         784.00000000     768.00000000     767.00000000     766.00000000     772.00000000     769.00000000     763.00000000     761.00000000     772.00000000     787.00000000     793.00000000     795.00000000     809.00000000     816.00000000     824.00000000     824.00000000     828.00000000     836.00000000     850.00000000     862.00000000
         833.00000000     811.00000000     830.00000000     874.00000000
         694.00000000     613.00000000     610.00000000     610.00000000     619.00000000     614.00000000     621.00000000     620.00000000     676.00000000     658.00000000     638.00000000     642.00000000     645.00000000     654.00000000     663.00000000     706.00000000     730.00000000     770.00000000     781.00000000     785.00000000
         784.00000000     768.00000000     767.00000000     766.00000000     772.00000000     769.00000000     763.00000000     761.00000000     772.00000000     787.00000000     793.00000000     795.00000000     809.00000000     816.00000000     824.00000000     824.00000000     828.00000000     836.00000000     850.00000000     862.00000000
         833.00000000     811.00000000     830.00000000     874.00000000
         694.00000000     613.00000000     610.00000000     610.00000000     619.00000000     614.00000000     621.00000000     620.00000000     676.00000000     658.00000000     638.00000000     642.00000000     645.00000000     654.00000000     663.00000000     706.00000000     730.00000000     770.00000000     781.00000000     785.00000000
         784.00000000     768.00000000     767.00000000     766.00000000     772.00000000     769.00000000     763.00000000     761.00000000     772.00000000     787.00000000     793.00000000     795.00000000     809.00000000     816.00000000     824.00000000     824.00000000     828.00000000     836.00000000     850.00000000     862.00000000
         833.00000000     811.00000000     830.00000000     874.00000000
         694.00000000     613.00000000     610.00000000     610.00000000     619.00000000     614.00000000     621.00000000     620.00000000     676.00000000     658.00000000     638.00000000     642.00000000     645.00000000     654.00000000     663.00000000     706.00000000     730.00000000     770.00000000     781.00000000     785.00000000
         784.00000000     768.00000000     767.00000000     766.00000000     772.00000000     769.00000000     763.00000000     761.00000000     772.00000000     787.00000000     793.00000000     795.00000000     809.00000000     816.00000000     824.00000000     824.00000000     828.00000000     836.00000000     850.00000000     862.00000000
         833.00000000     811.00000000     830.00000000     874.00000000
         694.00000000     613.00000000     610.00000000     610.00000000     619.00000000     614.00000000     621.00000000     620.00000000     676.00000000     658.00000000     638.00000000     642.00000000     645.00000000     654.00000000     663.00000000     706.00000000     730.00000000     770.00000000     781.00000000     785.00000000
         784.00000000     768.00000000     767.00000000     766.00000000     772.00000000     769.00000000     763.00000000     761.00000000     772.00000000     787.00000000     793.00000000     795.00000000     809.00000000     816.00000000     824.00000000     824.00000000     828.00000000     836.00000000     850.00000000     862.00000000
         833.00000000     811.00000000     830.00000000     874.00000000
         694.00000000     613.00000000     610.00000000     610.00000000     619.00000000     614.00000000     621.00000000     620.00000000     676.00000000     658.00000000     638.00000000     642.00000000     645.00000000     654.00000000     663.00000000     706.00000000     730.00000000     770.00000000     781.00000000     785.00000000
         784.00000000     768.00000000     767.00000000     766.00000000     772.00000000     769.00000000     763.00000000     761.00000000     772.00000000     787.00000000     793.00000000     795.00000000     809.00000000     816.00000000     824.00000000     824.00000000     828.00000000     836.00000000     850.00000000     862.00000000
         833.00000000     811.00000000     830.00000000     874.00000000
         694.00000000     613.00000000     610.00000000     610.00000000     619.00000000     614.00000000     621.00000000     620.00000000     676.00000000     658.00000000     638.00000000     642.00000000     645.00000000     654.00000000     663.00000000     706.00000000     730.00000000     770.00000000     781.00000000     785.00000000
         784.00000000     768.00000000     767.00000000     766.00000000     772.00000000     769.00000000     763.00000000     761.00000000     772.00000000     787.00000000     793.00000000     795.00000000     809.00000000     816.00000000     824.00000000     824.00000000     828.00000000     836.00000000     850.00000000     862.00000000
         833.00000000     811.00000000     830.00000000     874.00000000
         694.00000000     613.00000000     610.00000000     610.00000000     619.00000000     614.00000000     621.00000000     620.00000000     676.00000000     658.00000000     638.00000000     642.00000000     645.00000000     654.00000000     663.00000000     706.00000000     730.00000000     770.00000000     781.00000000     785.00000000
         784.00000000     768.00000000     767.00000000     766.00000000     772.00000000     769.00000000     763.00000000     761.00000000     772.00000000     787.00000000     793.00000000     795.00000000     809.00000000     816.00000000     824.00000000     824.00000000     828.00000000     836.00000000     850.00000000     862.00000000
         833.00000000     811.00000000     830.00000000     874.00000000
         694.00000000     613.00000000     610.00000000     610.00000000     619.00000000     614.00000000     621.00000000     620.00000000     676.00000000     658.00000000     638.00000000     642.00000000     645.00000000     654.00000000     663.00000000     706.00000000     730.00000000     770.00000000     781.00000000     785.00000000
         784.00000000     768.00000000     767.00000000     766.00000000     772.00000000     769.00000000     763.00000000     761.00000000     772.00000000     787.00000000     793.00000000     795.00000000     809.00000000     816.00000000     824.00000000     824.00000000     828.00000000     836.00000000     850.00000000     862.00000000
         833.00000000     811.00000000     830.00000000     874.00000000
         694.00000000     613.00000000     610.00000000     610.00000000     619.00000000     614.00000000     621.00000000     620.00000000     676.00000000     658.00000000     638.00000000     642.00000000     645.00000000     654.00000000     663.00000000     706.00000000     730.00000000     770.00000000     781.00000000     785.00000000
         784.00000000     768.00000000     767.00000000     766.00000000     772.00000000     769.00000000     763.00000000     761.00000000     772.00000000     787.00000000     793.00000000     795.00000000     809.00000000     816.00000000     824.00000000     824.00000000     828.00000000     836.00000000     850.00000000     862.00000000
         833.00000000     811.00000000     830.00000000     874.00000000
         694.00000000     613.00000000     610.00000000     610.00000000     619.00000000     614.00000000     621.00000000     620.00000000     676.00000000     658.00000000     638.00000000     642.00000000     645.00000000     654.00000000     663.00000000     706.00000000     730.00000000     770.00000000     781.00000000     785.00000000
         784.00000000     768.00000000     767.00000000     766.00000000     772.00000000     769.00000000     763.00000000     761.00000000     772.00000000     787.00000000     793.00000000     795.00000000     809.00000000     816.00000000     824.00000000     824.00000000     828.00000000     836.00000000     850.00000000     862.00000000
         833.00000000     811.00000000     830.00000000     874.00000000
         694.00000000     613.00000000     610.00000000     610.00000000     619.00000000     614.00000000     621.00000000     620.00000000     676.00000000     658.00000000     638.00000000     642.00000000     645.00000000     654.00000000     663.00000000     706.00000000     730.00000000     770.00000000     781.00000000     785.00000000
         784.00000000     768.00000000     767.00000000     766.00000000     772.00000000     769.00000000     763.00000000     761.00000000     772.00000000     787.00000000     793.00000000     795.00000000     809.00000000     816.00000000     824.00000000     824.00000000     828.00000000     836.00000000     850.00000000     862.00000000
         833.00000000     811.00000000     830.00000000     874.00000000
         694.00000000     613.00000000     610.00000000     610.00000000     619.00000000     614.00000000     621.00000000     620.00000000     676.00000000     658.00000000     638.00000000     642.00000000     645.00000000     654.00000000     663.00000000     706.00000000     730.00000000     770.00000000     781.00000000     785.00000000
         784.00000000     768.00000000     767.00000000     766.00000000     772.00000000     769.00000000     763.00000000     761.00000000     772.00000000     787.00000000     793.00000000     795.00000000     809.00000000     816.00000000     824.00000000     824.00000000     828.00000000     836.00000000     850.00000000     862.00000000
         833.00000000     811.00000000     830.00000000     874.00000000
         694.00000000     613.00000000     610.00000000     610.00000000     619.00000000     614.00000000     621.00000000     620.00000000     676.00000000     658.00000000     638.00000000     642.00000000     645.00000000     654.00000000     663.00000000     706.00000000     730.00000000     770.00000000     781.00000000     785.00000000
         784.00000000     768.00000000     767.00000000     766.00000000     772.00000000     769.00000000     763.00000000     761.00000000     772.00000000     787.00000000     793.00000000     795.00000000     809.00000000     816.00000000     824.00000000     824.00000000     828.00000000     836.00000000     850.00000000     862.00000000
         833.00000000     811.00000000     830.00000000     874.00000000
         694.00000000     613.00000000     610.00000000     610.00000000     619.00000000     614.00000000     621.00000000     620.00000000     676.00000000     658.00000000     638.00000000     642.00000000     645.00000000     654.00000000     663.00000000     706.00000000     730.00000000     770.00000000     781.00000000     785.00000000
         784.00000000     768.00000000     767.00000000     766.00000000     772.00000000     769.00000000     763.00000000     761.00000000     772.00000000     787.00000000     793.00000000     795.00000000     809.00000000     816.00000000     824.00000000     824.00000000     828.00000000     836.00000000     850.00000000     862.00000000
         833.00000000     811.00000000     830.00000000     874.00000000
         694.00000000     613.00000000     610.00000000     610.00000000     619.00000000     614.00000000     621.00000000     620.00000000     676.00000000     658.00000000     638.00000000     642.00000000     645.00000000     654.00000000     663.00000000     706.00000000     730.00000000     770.00000000     781.00000000     785.00000000
         784.00000000     768.00000000     767.00000000     766.00000000     772.00000000     769.00000000     763.00000000     761.00000000     772.00000000     787.00000000     793.00000000     795.00000000     809.00000000     816.00000000     824.00000000     824.00000000     828.00000000     836.00000000     850.00000000     862.00000000
         833.00000000     811.00000000     830.00000000     874.00000000
         694.00000000     613.00000000     610.00000000     610.00000000     619.00000000     614.00000000     621.00000000     620.00000000     676.00000000     658.00000000     638.00000000     642.00000000     645.00000000     654.00000000     663.00000000     706.00000000     730.00000000     770.00000000     781.00000000     785.00000000
         784.00000000     768.00000000     767.00000000     766.00000000     772.00000000     769.00000000     763.00000000     761.00000000     772.00000000     787.00000000     793.00000000     795.00000000     809.00000000     816.00000000     824.00000000     824.00000000     828.00000000     836.00000000     850.00000000     862.00000000
         833.00000000     811.00000000     830.00000000     874.00000000
    INTERNAL  FACTOR  1.0
         694.00000000     613.00000000     610.00000000     610.00000000     619.00000000     614.00000000     621.00000000     620.00000000     676.00000000     658.00000000     638.00000000     642.00000000     645.00000000     654.00000000     663.00000000     706.00000000     730.00000000     770.00000000     781.00000000     785.00000000
         784.00000000     768.00000000     767.00000000     766.00000000     772.00000000     769.00000000     763.00000000     761.00000000     772.00000000     787.00000000     793.00000000     795.00000000     809.00000000     816.00000000     824.00000000     824.00000000     828.00000000     836.00000000     850.00000000     862.00000000
         833.00000000     811.00000000     830.00000000     874.00000000
         694.00000000     613.00000000     610.00000000     610.00000000     619.00000000     614.00000000     621.00000000     620.00000000     676.00000000     658.00000000     638.00000000     642.00000000     645.00000000     654.00000000     663.00000000     706.00000000     730.00000000     770.00000000     781.00000000     785.00000000
         784.00000000     768.00000000     767.00000000     766.00000000     772.00000000     769.00000000     763.00000000     761.00000000     772.00000000     787.00000000     793.00000000     795.00000000     809.00000000     816.00000000     824.00000000     824.00000000     828.00000000     836.00000000     850.00000000     862.00000000
         833.00000000     811.00000000     830.00000000     874.00000000
         694.00000000     613.00000000     610.00000000     610.00000000     619.00000000     614.00000000     621.00000000     620.00000000     676.00000000     658.00000000     638.00000000     642.00000000     645.00000000     654.00000000     663.00000000     706.00000000     730.00000000     770.00000000     781.00000000     785.00000000
         784.00000000     768.00000000     767.00000000     766.00000000     772.00000000     769.00000000     763.00000000     761.00000000     772.00000000     787.00000000     793.00000000     795.00000000     809.00000000     816.00000000     824.00000000     824.00000000     828.00000000     836.00000000     850.00000000     862.00000000
         833.00000000     811.00000000     830.00000000     874.00000000
         694.00000000     613.00000000     610.00000000     610.00000000     619.00000000     614.00000000     621.00000000     620.00000000     676.00000000     658.00000000     638.00000000     642.00000000     645.00000000     654.00000000     663.00000000     706.00000000     730.00000000     770.00000000     781.00000000     785.00000000
         784.00000000     768.00000000     767.00000000     766.00000000     772.00000000     769.00000000     763.00000000     761.00000000     772.00000000     787.00000000     793.00000000     795.00000000     809.00000000     816.00000000     824.00000000     824.00000000     828.00000000     836.00000000     850.00000000     862.00000000
         833.00000000     811.00000000     830.00000000     874.00000000