# File generated by Flopy version 3.3.6 on 08/05/2022 at 21:27:01.
BEGIN options
  BUDGET  FILEOUT  modelo_Norte.cbb
  HEAD  FILEOUT  modelo_Norte.hds
END options

BEGIN period  1
  SAVE  HEAD  ALL
  SAVE  BUDGET  ALL
  PRINT  HEAD  LAST
END period  1

