# File generated by Flopy version 3.3.4 on 11/27/2021 at 23:24:32.
BEGIN options
  XORIGIN  1.10238512E+06
  YORIGIN  1.28136222E+06
END options

BEGIN dimensions
  NLAY  6
  NROW  59
  NCOL  107
END dimensions

BEGIN griddata
  delr
    INTERNAL  FACTOR  1.0
        80.00000000      80.00000000      80.00000000      80.00000000      80.00000000      80.00000000      80.00000000      80.00000000      80.00000000      80.00000000      80.00000000      80.00000000      80.00000000      80.00000000      80.00000000      80.00000000      80.00000000      80.00000000      80.00000000      80.00000000      80.00000000      80.00000000      80.00000000      80.00000000      80.00000000      80.00000000      80.00000000      80.00000000      75.93750000      50.62500000      33.75000000      22.50000000      15.00000000      10.00000000      10.00000000      10.00000000      10.00000000      10.00000000      10.00000000      10.00000000      10.00000000      10.00000000      10.00000000      10.00000000      10.00000000      10.00000000      10.00000000      10.00000000      10.00000000      10.00000000      10.00000000      10.00000000      10.00000000      10.00000000      10.00000000      10.00000000      10.00000000      10.00000000      10.00000000      10.00000000      10.00000000      10.00000000      10.00000000      10.00000000      10.00000000      10.00000000      10.00000000      10.00000000      10.00000000      10.00000000      10.00000000      10.00000000      10.00000000      10.00000000      10.00000000      10.00000000      10.00000000      10.00000000      10.00000000      10.00000000      10.00000000      10.00000000      10.00000000      10.00000000      10.00000000      10.00000000      10.00000000      10.00000000      10.00000000      10.00000000      10.00000000      10.00000000      10.00000000      10.00000000      10.00000000      10.00000000      10.00000000      15.00000000      22.50000000      33.75000000      50.62500000      75.93750000      80.00000000      80.00000000      80.00000000      80.00000000      80.00000000
  delc
    INTERNAL  FACTOR  1.0
        80.00000000      80.00000000      80.00000000      80.00000000      80.00000000      80.00000000      80.00000000      80.00000000      80.00000000      80.00000000      80.00000000      80.00000000      80.00000000      80.00000000      80.00000000      80.00000000      80.00000000      80.00000000      80.00000000      80.00000000      80.00000000      80.00000000      80.00000000      80.00000000      75.93750000      50.62500000      33.75000000      22.50000000      15.00000000      10.00000000      10.00000000      10.00000000      10.00000000      10.00000000      10.00000000      10.00000000      10.00000000      10.00000000      10.00000000      10.00000000      10.00000000      10.00000000      10.00000000      10.00000000      10.00000000      10.00000000      15.00000000      22.50000000      33.75000000      50.62500000      75.93750000      80.00000000      80.00000000      80.00000000      80.00000000      80.00000000      80.00000000      80.00000000      80.00000000
  top
    INTERNAL  FACTOR  1.0
       700.00000000     625.00000000     613.00000000     607.00000000     610.00000000     615.00000000     614.00000000     615.00000000     626.00000000     621.00000000     662.00000000     656.00000000     638.00000000     641.00000000     638.00000000     641.00000000     653.00000000     652.00000000     680.00000000     712.00000000     730.00000000     765.00000000     774.00000000     783.00000000     786.00000000     784.00000000     770.00000000     760.00000000     766.00000000     765.00000000     769.00000000     770.00000000     768.00000000     766.00000000     766.00000000     765.00000000     763.00000000     761.00000000     761.00000000     761.00000000     760.00000000     759.00000000     758.00000000     758.00000000     758.00000000     760.00000000     764.00000000     767.00000000     771.00000000     771.00000000     774.00000000     779.00000000     783.00000000     786.00000000     786.00000000     789.00000000     791.00000000     792.00000000     792.00000000     792.00000000     792.00000000     793.00000000     794.00000000     795.00000000     795.00000000     798.00000000     802.00000000     807.00000000     810.00000000     810.00000000     812.00000000     814.00000000     816.00000000     817.00000000     817.00000000     820.00000000     822.00000000     824.00000000     826.00000000     826.00000000     827.00000000     826.00000000     826.00000000     825.00000000     825.00000000     825.00000000     826.00000000     828.00000000     830.00000000     830.00000000     832.00000000     834.00000000     835.00000000     837.00000000     837.00000000     839.00000000     842.00000000     845.00000000     848.00000000     857.00000000     861.00000000     861.00000000     832.00000000     807.00000000     824.00000000     851.00000000     895.00000000
       714.00000000     664.00000000     627.00000000     617.00000000     621.00000000     622.00000000     642.00000000     656.00000000     644.00000000     624.00000000     626.00000000     627.00000000     623.00000000     626.00000000     636.00000000     633.00000000     638.00000000     649.00000000     688.00000000     721.00000000     752.00000000     757.00000000     756.00000000     767.00000000     776.00000000     768.00000000     766.00000000     751.00000000     748.00000000     750.00000000     754.00000000     757.00000000     756.00000000     753.00000000     753.00000000     750.00000000     748.00000000     746.00000000     744.00000000     744.00000000     742.00000000     742.00000000     744.00000000     747.00000000     747.00000000     749.00000000     751.00000000     753.00000000     755.00000000     755.00000000     760.00000000     766.00000000     773.00000000     777.00000000     777.00000000     780.00000000     781.00000000     781.00000000     781.00000000     781.00000000     782.00000000     783.00000000     784.00000000     785.00000000     785.00000000     788.00000000     792.00000000     797.00000000     802.00000000     802.00000000     806.00000000     809.00000000     810.00000000     811.00000000     811.00000000     812.00000000     814.00000000     817.00000000     822.00000000     822.00000000     826.00000000     831.00000000     836.00000000     839.00000000     839.00000000     841.00000000     844.00000000     846.00000000     847.00000000     847.00000000     850.00000000     852.00000000     854.00000000     857.00000000     857.00000000     858.00000000     860.00000000     860.00000000     859.00000000     855.00000000     855.00000000     861.00000000     851.00000000     812.00000000     814.00000000     844.00000000     885.00000000
       762.00000000     704.00000000     677.00000000     662.00000000     671.00000000     687.00000000     695.00000000     687.00000000     644.00000000     615.09197998     608.00000000     609.69982910     610.93719482     613.13110352     616.00000000     613.85626221     614.00000000     619.79364014     648.96173096     691.05731201     722.97088623     720.00000000     735.78863525     746.71154785     751.75067139     749.95635986     747.53540039     738.20794678     728.96136475     731.59204102     732.96325684     733.95568848     739.74938965     738.20050049     738.20050049     736.37567139     734.59112549     729.26239014     726.77618408     726.77618408     724.34320068     719.44232178     715.19610596     719.37249756     719.37249756     726.26818848     731.67779541     740.62872314     740.23010254     740.23010254     740.46728516     740.96008301     741.33740234     742.00000000     742.00000000     740.50695801     739.55444336     738.74615479     748.47460938     748.47460938     755.40393066     761.62176514     770.70581055     776.39733887     776.39733887     781.25018311     785.27410889     786.00000000     788.34887695     788.34887695     789.69177246     791.03466797     793.00714111     799.60394287     799.60394287     803.55682373     807.80920410     812.43371582     819.28979492     819.28979492     821.31231689     823.96588135     827.57672119     834.23889160     834.23889160     837.03387451     839.54687500     841.88079834     845.58044434     845.58044434     847.23913574     848.63903809     849.31188965     850.42321777     850.42321777     850.20587158     850.00000000     849.20404053     843.59710693     834.21441650     832.00000000     835.61138916     840.00000000     803.00000000     811.00000000     845.00000000     878.00000000
       794.00000000     721.00000000     707.00000000     716.00000000     715.00000000     719.00000000     706.00000000     671.00000000     631.00000000     630.00000000     624.76702881     608.00000000     610.00000000     610.00000000     617.49859619     618.73052979     618.01135254     619.72277832     618.44714355     652.23956299     667.81451416     701.31878662     738.52850342     760.00000000     730.23931885     736.68133545     733.81176758     727.83050537     715.11096191     725.20166016     730.04052734     730.00000000     738.61791992     737.42730713     737.42730713     734.46154785     731.72448730     731.74005127     732.00000000     732.00000000     732.00000000     728.69323730     716.18933105     710.64990234     710.64990234     707.00213623     704.10516357     704.00000000     704.00000000     704.00000000     708.19305420     714.29949951     721.74780273     733.09863281     733.09863281     735.12805176     737.28930664     740.59228516     746.53100586     746.53100586     749.16827393     756.23376465     761.98718262     764.15856934     764.15856934     768.54431152     769.86444092     771.18457031     772.12658691     772.12658691     779.66461182     789.31298828     794.49993896     804.38922119     804.38922119     808.60443115     811.16546631     814.00000000     819.11822510     819.11822510     821.82720947     824.83599854     828.29754639     835.78521729     835.78521729     840.27349854     845.53131104     850.68505859     854.00000000     854.00000000     854.00000000     854.00000000     854.00000000     850.32305908     850.32305908     847.19995117     844.35308838     841.01098633     833.85809326     824.02832031     815.04052734     822.45019531     829.00000000     789.00000000     811.00000000     836.00000000     859.00000000
       804.00000000     761.00000000     748.00000000     741.00000000     715.00000000     699.00000000     683.00000000     646.00000000     619.00000000     608.00000000     617.79193115     617.74572754     612.23754883     616.00201416     616.79272461     617.95764160     630.45727539     636.62774658     625.43383789     623.85302734     666.08679199     726.40264893     751.42633057     740.17810059     719.25915527     714.00000000     714.44445801     715.46569824     705.77691650     718.02423096     718.89617920     722.35394287     716.75677490     711.62469482     711.62469482     710.00000000     711.77124023     714.00000000     713.02703857     713.02703857     711.54150391     709.74566650     706.78186035     704.31408691     704.31408691     700.00000000     702.59234619     711.10485840     716.26702881     716.26702881     721.40563965     728.47387695     734.03930664     740.07440186     740.07440186     744.29071045     747.76293945     750.85443115     757.51715088     757.51715088     761.73620605     762.28747559     765.75787354     771.72229004     771.72229004     774.36407471     777.19842529     780.17761230     785.30773926     785.30773926     788.10937500     790.79370117     793.13909912     797.95208740     797.95208740     802.00366211     806.42633057     810.78747559     818.55249023     818.55249023     822.66760254     827.34240723     831.33135986     836.07977295     836.07977295     837.05889893     836.93933105     836.60394287     835.52764893     835.52764893     834.36505127     832.47686768     830.77935791     824.01586914     824.01586914     822.55242920     820.71643066     819.27703857     814.24169922     806.12329102     797.08142090     813.32287598     795.00000000     785.00000000     819.00000000     824.00000000     846.00000000
       786.00000000     777.00000000     768.00000000     747.00000000     721.00000000     691.00000000     660.00000000     630.00000000     620.00000000     608.00000000     609.60839844     618.63439941     616.51080322     617.11633301     617.63647461     624.09582520     639.58605957     643.19171143     631.00946045     620.62341309     683.52178955     739.16876221     743.47753906     731.40368652     710.39392090     694.06726074     702.93646240     699.76159668     696.33679199     706.61236572     702.18713379     705.29418945     713.10595703     707.91766357     707.91766357     702.52069092     699.33172607     697.78424072     696.46636963     696.46636963     695.55535889     695.49182129     694.00000000     694.31707764     694.31707764     698.31695557     703.19512939     705.95562744     707.34631348     707.34631348     709.24737549     715.47998047     723.76092529     731.84197998     731.84197998     734.31744385     736.00000000     739.96697998     748.99682617     748.99682617     752.37145996     756.04101562     758.00000000     758.62908936     758.62908936     762.49731445     764.48034668     766.65093994     772.00000000     772.00000000     774.43670654     778.00000000     781.73181152     791.40362549     791.40362549     796.23114014     801.15625000     805.41571045     811.26776123     811.26776123     812.00000000     816.82745361     820.38244629     823.02783203     823.02783203     823.23883057     822.68371582     821.92187500     820.06201172     820.06201172     818.18444824     815.36767578     812.77331543     807.24255371     807.24255371     804.97326660     802.42864990     801.26464844     800.28637695     796.23449707     787.12530518     803.64874268     780.00000000     792.00000000     827.00000000     852.00000000     864.00000000
       761.00000000     746.00000000     751.00000000     721.00000000     694.00000000     671.00000000     630.00000000     621.00000000     620.00000000     608.71185303     610.00000000     613.43524170     617.36895752     620.00000000     621.32745361     624.82226562     652.00000000     652.00000000     644.28656006     620.00000000     662.43627930     726.03375244     728.23187256     698.94927979     703.68255615     678.00000000     707.47381592     697.98699951     678.00000000     688.78875732     692.49755859     694.00000000     688.75744629     686.76892090     686.76892090     685.88916016     688.99359131     691.20861816     698.58734131     698.58734131     704.33361816     706.62432861     712.69195557     717.16394043     717.16394043     720.79199219     723.73504639     732.16595459     734.27014160     734.27014160     736.00000000     737.82263184     739.24035645     743.15222168     743.15222168     748.03869629     749.92468262     750.00000000     752.47357178     752.47357178     757.04040527     759.89874268     761.49047852     764.55273438     764.55273438     766.47302246     768.00000000     770.93347168     776.55255127     776.55255127     781.15423584     784.11102295     788.77423096     796.30786133     796.30786133     799.86865234     801.80462646     803.27246094     807.74346924     807.74346924     808.43554688     806.17260742     806.85516357     805.53411865     805.53411865     804.93469238     804.00000000     801.92578125     799.15820312     799.15820312     798.57153320     798.18597412     796.90618896     792.78271484     792.78271484     790.76776123     789.06097412     787.06109619     780.76196289     775.20190430     789.67810059     798.29217529     781.00000000     809.00000000     843.00000000     875.00000000     884.00000000
       755.00000000     728.00000000     721.00000000     703.00000000     671.00000000     648.00000000     621.00000000     618.00000000     618.00000000     608.10931396     612.00000000     612.00000000     617.96557617     620.00000000     623.03924561     626.52777100     654.44110107     654.43408203     645.94970703     620.00000000     645.68145752     707.74133301     707.43750000     676.34460449     684.93579102     678.87072754     700.00000000     698.69262695     678.00000000     677.82983398     691.66229248     686.11322021     682.79418945     684.37487793     684.37487793     684.97973633     685.86303711     710.15783691     714.07720947     714.07720947     719.16284180     724.63519287     735.09661865     738.10760498     738.10760498     740.00000000     740.00000000     741.26892090     742.00000000     742.00000000     742.98657227     745.34075928     751.79724121     760.44348145     760.44348145     762.15515137     760.31805420     758.80718994     758.32293701     758.32293701     759.12689209     760.00000000     761.11169434     765.73693848     765.73693848     767.92565918     770.04742432     770.92547607     773.24468994     773.24468994     774.36950684     775.52374268     777.12860107     781.20440674     781.20440674     782.23144531     783.58813477     785.99078369     786.18725586     786.18725586     786.27539062     786.99804688     786.95385742     786.47686768     786.47686768     785.33343506     784.66864014     784.51440430     783.93847656     783.93847656     782.78356934     782.30407715     780.75048828     777.58312988     777.58312988     774.00000000     774.82818604     774.76159668     771.80004883     777.66967773     793.19268799     789.00000000     772.00000000     798.00000000     841.00000000     872.00000000     872.00000000
       759.00000000     727.00000000     702.00000000     681.00000000     668.00000000     651.00000000     618.00000000     621.00000000     621.00000000     608.00000000     610.01782227     618.00000000     619.88146973     620.67169189     624.09375000     646.88549805     660.92364502     667.23071289     648.08752441     630.91522217     624.00000000     665.14239502     671.75714111     659.49078369     663.44091797     679.25848389     684.28326416     681.46423340     685.16552734     665.15380859     676.23748779     662.00000000     680.00000000     683.64343262     683.64343262     697.03417969     710.08001709     716.78839111     721.71118164     721.71118164     727.55767822     732.47473145     741.25994873     746.36926270     746.36926270     750.45037842     752.69183350     758.34814453     760.36297607     760.36297607     761.27386475     762.00000000     763.23480225     765.18383789     765.18383789     764.34466553     764.48455811     764.49755859     764.99810791     764.99810791     766.67254639     770.65350342     773.40057373     777.13110352     777.13110352     776.42333984     775.17260742     774.13214111     773.31353760     773.31353760     772.69268799     772.00000000     772.00000000     772.00000000     772.00000000     772.00000000     771.32415771     770.55700684     769.21740723     769.21740723     768.59442139     768.61700439     768.87719727     769.85290527     769.85290527     770.53247070     770.59899902     771.47155762     769.92297363     769.92297363     769.10614014     765.84362793     760.93585205     760.67572021     760.67572021     757.12829590     757.77600098     765.00805664     772.50573730     781.80151367     789.19042969     772.00000000     767.00000000     800.00000000     837.00000000     863.00000000     855.00000000
       736.00000000     719.00000000     702.00000000     688.00000000     678.00000000     645.00000000     621.00000000     623.00000000     621.00000000     608.00000000     612.00000000     619.54748535     621.02789307     623.58416748     626.00000000     649.49542236     675.44958496     680.00000000     664.53222656     644.80566406     628.00000000     624.00000000     643.72570801     651.18621826     653.91455078     658.03582764     658.44848633     659.51196289     660.23413086     656.00000000     657.46356201     661.35919189     672.05224609     673.37060547     673.37060547     677.59729004     681.04998779     690.35229492     694.29211426     694.29211426     698.02526855     701.93444824     711.82122803     712.96710205     712.96710205     716.64465332     718.75030518     727.31176758     735.22875977     735.22875977     739.13043213     741.90985107     748.83685303     753.13140869     753.13140869     756.46972656     765.77850342     766.00000000     771.37792969     771.37792969     774.00000000     775.43334961     776.05224609     778.28619385     778.28619385     778.67871094     778.83721924     778.62658691     777.54748535     777.54748535     776.02667236     773.93438721     772.55572510     769.70623779     769.70623779     768.54644775     767.13897705     765.49163818     763.25225830     763.25225830     762.08441162     760.37561035     758.83605957     758.19616699     758.19616699     758.01232910     757.46081543     757.00750732     752.00000000     752.00000000     748.81341553     744.61376953     740.54559326     741.86718750     741.86718750     743.16760254     745.23455811     748.18847656     755.51574707     758.39624023     758.00000000     749.00000000     767.00000000     819.00000000     836.00000000     850.00000000     861.00000000
       712.00000000     705.00000000     692.00000000     673.00000000     655.00000000     638.00000000     624.00000000     621.00000000     624.00000000     608.00000000     612.00000000     620.00000000     622.72186279     626.83117676     629.38348389     655.21105957     679.70904541     688.00000000     686.00000000     668.80328369     631.90045166     628.71881104     634.76678467     638.00000000     651.06835938     651.92974854     651.03497314     655.64721680     656.00000000     656.00000000     658.88525391     661.49926758     667.26531982     667.94665527     667.94665527     669.02758789     670.00000000     677.82122803     679.96289062     679.96289062     684.27593994     686.87377930     697.00036621     701.56243896     701.56243896     706.28588867     711.43682861     721.41131592     724.30535889     724.30535889     728.73760986     736.24188232     742.28021240     752.47058105     752.47058105     757.52166748     759.78924561     761.22558594     765.39556885     765.39556885     766.33410645     766.48590088     766.16656494     765.02673340     765.02673340     765.48284912     765.93664551     767.44635010     767.49206543     767.49206543     766.78863525     765.77789307     764.66815186     763.10766602     763.10766602     761.08148193     759.97753906     759.84448242     760.00000000     760.00000000     758.80133057     757.52514648     756.36578369     754.52587891     754.52587891     753.07604980     752.00000000     749.79345703     738.77081299     738.77081299     731.01580811     730.00000000     730.25097656     728.48516846     728.48516846     728.20166016     726.00000000     727.72875977     736.00000000     735.00000000     738.00000000     749.00000000     790.00000000     813.00000000     819.00000000     835.00000000     849.00000000
       696.00000000     683.00000000     671.00000000     663.00000000     649.00000000     633.00000000     625.00000000     624.00000000     622.00000000     610.00000000     614.00000000     622.93804932     630.00000000     632.24389648     648.26074219     657.04266357     688.92504883     700.83203125     700.38964844     695.53948975     679.83044434     628.00000000     632.93218994     635.09594727     638.09851074     640.58166504     643.44354248     647.75439453     652.25738525     656.44976807     660.42041016     663.24798584     666.54034424     667.32598877     667.32598877     668.41986084     669.71362305     672.32177734     673.77398682     673.77398682     678.75811768     684.94683838     698.61096191     705.19366455     705.19366455     711.45233154     714.03228760     723.13269043     729.90252686     729.90252686     734.75036621     737.71783447     740.92102051     746.26745605     746.26745605     748.00000000     748.58642578     750.01721191     750.52075195     750.52075195     750.17834473     749.49114990     747.89825439     746.78320312     746.78320312     746.90454102     746.87103271     746.58172607     746.42565918     746.42565918     746.66339111     747.02954102     747.26025391     747.16265869     747.16265869     746.74133301     745.77441406     745.16058350     743.98449707     743.98449707     741.96362305     741.08355713     740.50823975     739.27435303     739.27435303     739.54968262     740.07611084     741.53540039     745.70660400     745.70660400     750.00000000     748.00000000     744.00000000     738.00000000     738.00000000     733.00000000     728.00000000     724.00000000     722.00000000     725.00000000     737.00000000     758.00000000     776.00000000     792.00000000     801.00000000     839.00000000     858.00000000
       684.00000000     678.00000000     667.00000000     652.00000000     640.00000000     630.00000000     625.00000000     627.00000000     609.69122314     610.00000000     622.38970947     630.49481201     634.76300049     639.24017334     648.00000000     653.73236084     683.11621094     699.06475830     712.32824707     716.46319580     692.65368652     634.33453369     632.00000000     632.00000000     633.00860596     635.39703369     638.00000000     638.50634766     638.00000000     648.64941406     653.60656738     662.91455078     664.15026855     664.84472656     664.84472656     665.51635742     666.49938965     670.89678955     673.71691895     673.71691895     677.46563721     684.52514648     699.13366699     707.62591553     707.62591553     713.52575684     712.07714844     732.19195557     735.92999268     735.92999268     737.88116455     739.43463135     739.98114014     743.69610596     743.69610596     745.33624268     746.44085693     747.04461670     746.81420898     746.81420898     746.00000000     745.01330566     743.81158447     742.00000000     742.00000000     741.60675049     741.20123291     740.81524658     740.00000000     740.00000000     739.56506348     738.83666992     738.89025879     740.32879639     740.32879639     740.31616211     740.02825928     739.18579102     736.20080566     736.20080566     732.61700439     731.05688477     730.53668213     739.17962646     739.17962646     740.92895508     741.29199219     741.51409912     749.00000000     749.00000000     747.00000000     743.00000000     739.00000000     734.00000000     734.00000000     729.00000000     724.00000000     720.00000000     717.00000000     721.00000000     733.00000000     748.00000000     773.00000000     796.00000000     828.00000000     857.00000000     859.00000000
       681.00000000     664.00000000     656.00000000     643.00000000     630.00000000     626.00000000     625.00000000     625.00000000     610.00000000     610.85748291     620.39831543     641.14147949     638.92980957     639.95196533     659.76898193     658.55065918     680.00000000     699.67211914     716.03479004     734.04754639     718.18328857     675.38958740     656.22192383     639.86718750     638.97528076     641.34851074     642.87188721     642.96905518     647.32489014     639.40966797     644.53344727     640.00000000     661.04315186     663.64801025     663.64801025     666.59930420     667.38031006     670.64013672     672.92486572     672.92486572     678.42413330     683.81048584     691.65649414     696.45928955     696.45928955     701.36773682     704.66674805     712.94854736     722.08312988     722.08312988     728.07122803     732.33599854     734.87634277     736.13433838     736.13433838     736.59521484     736.78619385     737.27813721     737.54248047     737.54248047     737.08166504     736.12426758     733.33337402     727.03692627     727.03692627     725.42242432     723.91821289     722.28265381     722.00000000     722.00000000     720.13922119     721.62451172     726.78643799     723.72412109     723.72412109     721.05511475     720.00000000     720.00000000     725.75079346     725.75079346     730.49365234     734.00750732     735.93005371     737.69787598     737.69787598     738.00000000     738.10357666     738.42572021     744.00000000     744.00000000     742.00000000     739.00000000     735.00000000     729.00000000     729.00000000     724.00000000     719.00000000     716.00000000     714.00000000     714.00000000     719.00000000     752.00000000     800.00000000     823.00000000     831.00000000     844.00000000     852.00000000