# File generated by Flopy version 3.3.6 on 08/05/2022 at 21:26:49.
BEGIN options
  TIME_UNITS  seconds
  ATS6  FILEIN  modelo_Norte.ats
END options

BEGIN dimensions
  NPER  1642
END dimensions

BEGIN perioddata
       1.00000000  1       1.00000000
   86400.00000000  1       1.00000000
   86400.00000000  1       1.00000000
   86400.00000000  1       1.00000000
   86400.00000000  1       1.00000000
   86400.00000000  1       1.00000000
   86400.00000000  1       1.00000000
   86400.00000000  1       1.00000000
   86400.00000000  1       1.00000000
   86400.00000000  1       1.00000000
   86400.00000000  1       1.00000000
   86400.00000000  1       1.00000000
   86400.00000000  1       1.00000000
   86400.00000000  1       1.00000000
   86400.00000000  1       1.00000000
   86400.00000000  1       1.00000000
   86400.00000000  1       1.00000000
   86400.00000000  1       1.00000000
   86400.00000000  1       1.00000000
   86400.00000000  1       1.00000000
   86400.00000000  1       1.00000000
   86400.00000000  1       1.00000000
   86400.00000000  1       1.00000000
   86400.00000000  1       1.00000000
   86400.00000000  1       1.00000000
   86400.00000000  1       1.00000000
   86400.00000000  1       1.00000000
   86400.00000000  1       1.00000000
   86400.00000000  1       1.00000000
   86400.00000000  1       1.00000000
   86400.00000000  1       1.00000000
   86400.00000000  1       1.00000000
   86400.00000000  1       1.00000000
   86400.00000000  1       1.00000000
   86400.00000000  1       1.00000000
   86400.00000000  1       1.00000000
   86400.00000000  1       1.00000000
   86400.00000000  1       1.00000000
   86400.00000000  1       1.00000000
   86400.00000000  1       1.00000000
   86400.00000000  1       1.00000000
   86400.00000000  1       1.00000000
   86400.00000000  1       1.00000000
   86400.00000000  1       1.00000000
   86400.00000000  1       1.00000000
   86400.00000000  1       1.00000000
   86400.00000000  1       1.00000000
   86400.00000000  1       1.00000000
   86400.00000000  1       1.00000000
   86400.00000000  1       1.00000000
   86400.00000000  1       1.00000000
   86400.00000000  1       1.00000000
   86400.00000000  1       1.00000000
   86400.00000000  1       1.00000000
   86400.00000000  1       1.00000000
   86400.00000000  1       1.00000000
   86400.00000000  1       1.00000000
   86400.00000000  1       1.00000000
   86400.00000000  1       1.00000000
   86400.00000000  1       1.00000000
   86400.00000000  1       1.00000000
   86400.00000000  1       1.00000000
   86400.00000000  1       1.00000000
   86400.00000000  1       1.00000000
   86400.00000000  1       1.00000000
   86400.00000000  1       1.00000000
   86400.00000000  1       1.00000000
   86400.00000000  1       1.00000000
   86400.00000000  1       1.00000000
   86400.00000000  1       1.00000000
   86400.00000000  1       1.00000000
   86400.00000000  1       1.00000000
   86400.00000000  1       1.00000000
   86400.00000000  1       1.00000000
   86400.00000000  1       1.00000000
   86400.00000000  1       1.00000000
   86400.00000000  1       1.00000000
   86400.00000000  1       1.00000000
   86400.00000000  1       1.00000000
   86400.00000000  1       1.00000000
   86400.00000000  1       1.00000000
   86400.00000000  1       1.00000000
   86400.00000000  1       1.00000000
   86400.00000000  1       1.00000000
   86400.00000000  1       1.00000000
   86400.00000000  1       1.00000000
   86400.00000000  1       1.00000000
   86400.00000000  1       1.00000000
   86400.00000000  1       1.00000000
   86400.00000000  1       1.00000000
   86400.00000000  1       1.00000000
   86400.00000000  1       1.00000000
   86400.00000000  1       1.00000000
   86400.00000000  1       1.00000000
   86400.00000000  1       1.00000000
   86400.00000000  1       1.00000000
   86400.00000000  1       1.00000000
   86400.00000000  1       1.00000000
   86400.00000000  1       1.00000000
   86400.00000000  1       1.00000000
   86400.00000000  1       1.00000000
   86400.00000000  1       1.00000000
   86400.00000000  1       1.00000000
   86400.00000000  1       1.00000000
   86400.00000000  1       1.00000000
   86400.00000000  1       1.00000000
   86400.00000000  1       1.00000000
   86400.00000000  1       1.00000000
   86400.00000000  1       1.00000000
   86400.00000000  1       1.00000000
   86400.00000000  1       1.00000000
   86400.00000000  1       1.00000000
   86400.00000000  1       1.00000000
   86400.00000000  1       1.00000000
   86400.00000000  1       1.00000000
   86400.00000000  1       1.00000000
   86400.00000000  1       1.00000000
   86400.00000000  1       1.00000000
   86400.00000000  1       1.00000000
   86400.00000000  1       1.00000000
   86400.00000000  1       1.00000000
   86400.00000000  1       1.00000000
   86400.00000000  1       1.00000000
   86400.00000000  1       1.00000000
   86400.00000000  1       1.00000000
   86400.00000000  1       1.00000000
   86400.00000000  1       1.00000000
   86400.00000000  1       1.00000000
   86400.00000000  1       1.00000000
   86400.00000000  1       1.00000000
   86400.00000000  1       1.00000000
   86400.00000000  1       1.00000000
   86400.00000000  1       1.00000000
   86400.00000000  1       1.00000000
   86400.00000000  1       1.00000000
   86400.00000000  1       1.00000000
   86400.00000000  1       1.00000000
   86400.00000000  1       1.00000000
   86400.00000000  1       1.00000000
   86400.00000000  1       1.00000000
   86400.00000000  1       1.00000000
   86400.00000000  1       1.00000000
   86400.00000000  1       1.00000000
   86400.00000000  1       1.00000000
   86400.00000000  1       1.00000000
   86400.00000000  1       1.00000000
   86400.00000000  1       1.00000000
   86400.00000000  1       1.00000000
   86400.00000000  1       1.00000000
   86400.00000000  1       1.00000000
   86400.00000000  1       1.00000000
   86400.00000000  1       1.00000000
   86400.00000000  1       1.00000000
   86400.00000000  1       1.00000000
   86400.00000000  1       1.00000000
   86400.00000000  1       1.00000000
   86400.00000000  1       1.00000000
   86400.00000000  1       1.00000000
   86400.00000000  1       1.00000000
   86400.00000000  1       1.00000000
   86400.00000000  1       1.00000000
   86400.00000000  1       1.00000000
   86400.00000000  1       1.00000000
   86400.00000000  1       1.00000000
   86400.00000000  1       1.00000000
   86400.00000000  1       1.00000000
   86400.00000000  1       1.00000000
   86400.00000000  1       1.00000000
   86400.00000000  1       1.00000000
   86400.00000000  1       1.00000000
   86400.00000000  1       1.00000000
   86400.00000000  1       1.00000000
   86400.00000000  1       1.00000000
   86400.00000000  1       1.00000000
   86400.00000000  1       1.00000000
   86400.00000000  1       1.00000000
   86400.00000000  1       1.00000000
   86400.00000000  1       1.00000000
   86400.00000000  1       1.00000000
   86400.00000000  1       1.00000000
   86400.00000000  1       1.00000000
   86400.00000000  1       1.00000000
   86400.00000000  1       1.00000000
   86400.00000000  1       1.00000000
   86400.00000000  1       1.00000000
   86400.00000000  1       1.00000000
   86400.00000000  1       1.00000000
   86400.00000000  1       1.00000000
   86400.00000000  1       1.00000000
   86400.00000000  1       1.00000000
   86400.00000000  1       1.00000000
   86400.00000000  1       1.00000000
   86400.00000000  1       1.00000000
   86400.00000000  1       1.00000000
   86400.00000000  1       1.00000000
   86400.00000000  1       1.00000000
   86400.00000000  1       1.00000000
   86400.00000000  1       1.00000000
   86400.00000000  1       1.00000000
   86400.00000000  1       1.00000000
   86400.00000000  1       1.00000000
   86400.00000000  1       1.00000000
   86400.00000000  1       1.00000000
   86400.00000000  1       1.00000000
   86400.00000000  1       1.00000000
   86400.00000000  1       1.00000000
   86400.00000000  1       1.00000000
   86400.00000000  1       1.00000000
   86400.00000000  1       1.00000000
   86400.00000000  1       1.00000000
   86400.00000000  1       1.00000000
   86400.00000000  1       1.00000000
   86400.00000000  1       1.00000000
   86400.00000000  1       1.00000000
   86400.00000000  1       1.00000000
   86400.00000000  1       1.00000000
   86400.00000000  1       1.00000000
   86400.00000000  1       1.00000000
   86400.00000000  1       1.00000000
   86400.00000000  1       1.00000000
   86400.00000000  1       1.00000000
   86400.00000000  1       1.00000000
   86400.00000000  1       1.00000000
   86400.00000000  1       1.00000000
   86400.00000000  1       1.00000000
   86400.00000000  1       1.00000000
   86400.00000000  1       1.00000000
   86400.00000000  1       1.00000000
   86400.00000000  1       1.00000000
   86400.00000000  1       1.00000000
   86400.00000000  1       1.00000000
   86400.00000000  1       1.00000000
   86400.00000000  1       1.00000000
   86400.00000000  1       1.00000000
   86400.00000000  1       1.00000000
   86400.00000000  1       1.00000000
   86400.00000000  1       1.00000000
   86400.00000000  1       1.00000000
   86400.00000000  1       1.00000000
   86400.00000000  1       1.00000000
   86400.00000000  1       1.00000000
   86400.00000000  1       1.00000000
   86400.00000000  1       1.00000000
   86400.00000000  1       1.00000000
   86400.00000000  1       1.00000000
   86400.00000000  1       1.00000000
   86400.00000000  1       1.00000000
   86400.00000000  1       1.00000000
   86400.00000000  1       1.00000000
   86400.00000000  1       1.00000000
   86400.00000000  1       1.00000000
   86400.00000000  1       1.00000000
   86400.00000000  1       1.00000000
   86400.00000000  1       1.00000000
   86400.00000000  1       1.00000000
   86400.00000000  1       1.00000000
   86400.00000000  1       1.00000000
   86400.00000000  1       1.00000000
   86400.00000000  1       1.00000000
   86400.00000000  1       1.00000000
   86400.00000000  1       1.00000000
   86400.00000000  1       1.00000000
   86400.00000000  1       1.00000000
   86400.00000000  1       1.00000000
   86400.00000000  1       1.00000000
   86400.00000000  1       1.00000000
   86400.00000000  1       1.00000000
   86400.00000000  1       1.00000000
   86400.00000000  1       1.00000000
   86400.00000000  1       1.00000000
   86400.00000000  1       1.00000000
   86400.00000000  1       1.00000000
   86400.00000000  1       1.00000000
   86400.00000000  1       1.00000000
   86400.00000000  1       1.00000000
   86400.00000000  1       1.00000000
   86400.00000000  1       1.00000000
   86400.00000000  1       1.00000000
   86400.00000000  1       1.00000000
   86400.00000000  1       1.00000000
   86400.00000000  1       1.00000000
   86400.00000000  1       1.00000000
   86400.00000000  1       1.00000000
   86400.00000000  1       1.00000000
   86400.00000000  1       1.00000000
   86400.00000000  1       1.00000000
   86400.00000000  1       1.00000000
   86400.00000000  1       1.00000000
   86400.00000000  1       1.00000000
   86400.00000000  1       1.00000000
   86400.00000000  1       1.00000000
   86400.00000000  1       1.00000000
   86400.00000000  1       1.00000000
   86400.00000000  1       1.00000000
   86400.00000000  1       1.00000000
   86400.00000000  1       1.00000000
   86400.00000000  1       1.00000000
   86400.00000000  1       1.00000000
   86400.00000000  1       1.00000000
   86400.00000000  1       1.00000000
   86400.00000000  1       1.00000000
   86400.00000000  1       1.00000000
   86400.00000000  1       1.00000000
   86400.00000000  1       1.00000000
   86400.00000000  1       1.00000000
   86400.00000000  1       1.00000000
   86400.00000000  1       1.00000000
   86400.00000000  1       1.00000000
   86400.00000000  1       1.00000000
   86400.00000000  1       1.00000000
   86400.00000000  1       1.00000000
   86400.00000000  1       1.00000000
   86400.00000000  1       1.00000000
   86400.00000000  1       1.00000000
   86400.00000000  1       1.00000000
   86400.00000000  1       1.00000000
   86400.00000000  1       1.00000000
   86400.00000000  1       1.00000000
   86400.00000000  1       1.00000000
   86400.00000000  1       1.00000000
   86400.00000000  1       1.00000000
   86400.00000000  1       1.00000000
   86400.00000000  1       1.00000000
   86400.00000000  1       1.00000000
   86400.00000000  1       1.00000000
   86400.00000000  1       1.00000000
   86400.00000000  1       1.00000000
   86400.00000000  1       1.00000000
   86400.00000000  1       1.00000000
   86400.00000000  1       1.00000000
   86400.00000000  1       1.00000000
   86400.00000000  1       1.00000000
   86400.00000000  1       1.00000000
   86400.00000000  1       1.00000000
   86400.00000000  1       1.00000000
   86400.00000000  1       1.00000000
   86400.00000000  1       1.00000000
   86400.00000000  1       1.00000000
   86400.00000000  1       1.00000000
   86400.00000000  1       1.00000000
   86400.00000000  1       1.00000000
   86400.00000000  1       1.00000000
   86400.00000000  1       1.00000000
   86400.00000000  1       1.00000000
   86400.00000000  1       1.00000000
   86400.00000000  1       1.00000000
   86400.00000000  1       1.00000000
   86400.00000000  1       1.00000000
   86400.00000000  1       1.00000000
   86400.00000000  1       1.00000000
   86400.00000000  1       1.00000000
   86400.00000000  1       1.00000000
   86400.00000000  1       1.00000000
   86400.00000000  1       1.00000000
   86400.00000000  1       1.00000000
   86400.00000000  1       1.00000000
   86400.00000000  1       1.00000000
   86400.00000000  1       1.00000000
   86400.00000000  1       1.00000000
   86400.00000000  1       1.00000000
   86400.00000000  1       1.00000000
   86400.00000000  1       1.00000000
   86400.00000000  1       1.00000000
   86400.00000000  1       1.00000000
   86400.00000000  1       1.00000000
   86400.00000000  1       1.00000000
   86400.00000000  1       1.00000000
   86400.00000000  1       1.00000000
   86400.00000000  1       1.00000000
   86400.00000000  1       1.00000000
   86400.00000000  1       1.00000000
   86400.00000000  1       1.00000000
   86400.00000000  1       1.00000000
   86400.00000000  1       1.00000000
   86400.00000000  1       1.00000000
   86400.00000000  1       1.00000000
   86400.00000000  1       1.00000000
   86400.00000000  1       1.00000000
   86400.00000000  1       1.00000000
   86400.00000000  1       1.00000000
   86400.00000000  1       1.00000000
   86400.00000000  1       1.00000000
   86400.00000000  1       1.00000000
   86400.00000000  1       1.00000000
   86400.00000000  1       1.00000000
   86400.00000000  1       1.00000000
   86400.00000000  1       1.00000000
   86400.00000000  1       1.00000000
   86400.00000000  1       1.00000000
   86400.00000000  1       1.00000000
   86400.00000000  1       1.00000000
   86400.00000000  1       1.00000000
   86400.00000000  1       1.00000000
   86400.00000000  1       1.00000000
   86400.00000000  1       1.00000000
   86400.00000000  1       1.00000000
   86400.00000000  1       1.00000000
   86400.00000000  1       1.00000000
   86400.00000000  1       1.00000000
   86400.00000000  1       1.00000000
   86400.00000000  1       1.00000000
   86400.00000000  1       1.00000000
   86400.00000000  1       1.00000000
   86400.00000000  1       1.00000000
   86400.00000000  1       1.00000000
   86400.00000000  1       1.00000000
   86400.00000000  1       1.00000000
   86400.00000000  1       1.00000000
   86400.00000000  1       1.00000000
   86400.00000000  1       1.00000000
   86400.00000000  1       1.00000000
   86400.00000000  1       1.00000000
   86400.00000000  1       1.00000000
   86400.00000000  1       1.00000000
   86400.00000000  1       1.00000000
   86400.00000000  1       1.00000000
   86400.00000000  1       1.00000000
   86400.00000000  1       1.00000000
   86400.00000000  1       1.00000000
   86400.00000000  1       1.00000000
   86400.00000000  1       1.00000000
   86400.00000000  1       1.00000000
   86400.00000000  1       1.00000000
   86400.00000000  1       1.00000000
   86400.00000000  1       1.00000000
   86400.00000000  1       1.00000000
   86400.00000000  1       1.00000000
   86400.00000000  1       1.00000000
   86400.00000000  1       1.00000000
   86400.00000000  1       1.00000000
   86400.00000000  1       1.00000000
   86400.00000000  1       1.00000000
   86400.00000000  1       1.00000000
   86400.00000000  1       1.00000000
   86400.00000000  1       1.00000000
   86400.00000000  1       1.00000000
   86400.00000000  1       1.00000000
   86400.00000000  1       1.00000000
   86400.00000000  1       1.00000000
   86400.00000000  1       1.00000000
   86400.00000000  1       1.00000000
   86400.00000000  1       1.00000000
   86400.00000000  1       1.00000000
   86400.00000000  1       1.00000000
   86400.00000000  1       1.00000000
   86400.00000000  1       1.00000000
   86400.00000000  1       1.00000000
   86400.00000000  1       1.00000000
   86400.00000000  1       1.00000000
   86400.00000000  1       1.00000000
   86400.00000000  1       1.00000000
   86400.00000000  1       1.00000000
   86400.00000000  1       1.00000000
   86400.00000000  1       1.00000000
   86400.00000000  1       1.00000000
   86400.00000000  1       1.00000000
   86400.00000000  1       1.00000000
   86400.00000000  1       1.00000000
   86400.00000000  1       1.00000000
   86400.00000000  1       1.00000000
   86400.00000000  1       1.00000000
   86400.00000000  1       1.00000000
   86400.00000000  1       1.00000000
   86400.00000000  1       1.00000000
   86400.00000000  1       1.00000000
   86400.00000000  1       1.00000000
   86400.00000000  1       1.00000000
   86400.00000000  1       1.00000000
   86400.00000000  1       1.00000000
   86400.00000000  1       1.00000000
   86400.00000000  1       1.00000000
   86400.00000000  1       1.00000000
   86400.00000000  1       1.00000000
   86400.00000000  1       1.00000000
   86400.00000000  1       1.00000000
   86400.00000000  1       1.00000000
   86400.00000000  1       1.00000000
   86400.00000000  1       1.00000000
   86400.00000000  1       1.00000000
   86400.00000000  1       1.00000000
   86400.00000000  1       1.00000000
   86400.00000000  1       1.00000000
   86400.00000000  1       1.00000000
   86400.00000000  1       1.00000000
   86400.00000000  1       1.00000000
   86400.00000000  1       1.00000000
   86400.00000000  1       1.00000000
   86400.00000000  1       1.00000000
   86400.00000000  1       1.00000000
   86400.00000000  1       1.00000000
   86400.00000000  1       1.00000000
   86400.00000000  1       1.00000000
   86400.00000000  1       1.00000000
   86400.00000000  1       1.00000000
   86400.00000000  1       1.00000000
   86400.00000000  1       1.00000000
   86400.00000000  1       1.00000000
   86400.00000000  1       1.00000000
   86400.00000000  1       1.00000000
   86400.00000000  1       1.00000000
   86400.00000000  1       1.00000000
   86400.00000000  1       1.00000000
   86400.00000000  1       1.00000000
   86400.00000000  1       1.00000000
   86400.00000000  1       1.00000000
   86400.00000000  1       1.00000000
   86400.00000000  1       1.00000000
   86400.00000000  1       1.00000000
   86400.00000000  1       1.00000000
   86400.00000000  1       1.00000000
   86400.00000000  1       1.00000000
   86400.00000000  1       1.00000000
   86400.00000000  1       1.00000000
   86400.00000000  1       1.00000000
   86400.00000000  1       1.00000000
   86400.00000000  1       1.00000000
   86400.00000000  1       1.00000000
   86400.00000000  1       1.00000000
   86400.00000000  1       1.00000000
   86400.00000000  1       1.00000000
   86400.00000000  1       1.00000000
   86400.00000000  1       1.00000000
   86400.00000000  1       1.00000000
   86400.00000000  1       1.00000000
   86400.00000000  1       1.00000000
   86400.00000000  1       1.00000000
   86400.00000000  1       1.00000000
   86400.00000000  1       1.00000000
   86400.00000000  1       1.00000000
   86400.00000000  1       1.00000000
   86400.00000000  1       1.00000000
   86400.00000000  1       1.00000000
   86400.00000000  1       1.00000000
   86400.00000000  1       1.00000000
   86400.00000000  1       1.00000000
   86400.00000000  1       1.00000000
   86400.00000000  1       1.00000000
   86400.00000000  1       1.00000000
   86400.00000000  1       1.00000000
   86400.00000000  1       1.00000000
   86400.00000000  1       1.00000000
   86400.00000000  1       1.00000000
   86400.00000000  1       1.00000000
   86400.00000000  1       1.00000000
   86400.00000000  1       1.00000000
   86400.00000000  1       1.00000000
   86400.00000000  1       1.00000000
   86400.00000000  1       1.00000000
   86400.00000000  1       1.00000000
   86400.00000000  1       1.00000000
   86400.00000000  1       1.00000000
   86400.00000000  1       1.00000000
   86400.00000000  1       1.00000000
   86400.00000000  1       1.00000000
   86400.00000000  1       1.00000000
   86400.00000000  1       1.00000000
   86400.00000000  1       1.00000000
   86400.00000000  1       1.00000000
   86400.00000000  1       1.00000000
   86400.00000000  1       1.00000000
   86400.00000000  1       1.00000000
   86400.00000000  1       1.00000000
   86400.00000000  1       1.00000000
   86400.00000000  1       1.00000000
   86400.00000000  1       1.00000000
   86400.00000000  1       1.00000000
   86400.00000000  1       1.00000000
   86400.00000000  1       1.00000000
   86400.00000000  1       1.00000000
   86400.00000000  1       1.00000000
   86400.00000000  1       1.00000000
   86400.00000000  1       1.00000000
   86400.00000000  1       1.00000000
   86400.00000000  1       1.00000000
   86400.00000000  1       1.00000000
   86400.00000000  1       1.00000000
   86400.00000000  1       1.00000000
   86400.00000000  1       1.00000000
   86400.00000000  1       1.00000000
   86400.00000000  1       1.00000000
   86400.00000000  1       1.00000000
   86400.00000000  1       1.00000000
   86400.00000000  1       1.00000000
   86400.00000000  1       1.00000000
   86400.00000000  1       1.00000000
   86400.00000000  1       1.00000000
   86400.00000000  1       1.00000000
   86400.00000000  1       1.00000000
   86400.00000000  1       1.00000000
   86400.00000000  1       1.00000000
   86400.00000000  1       1.00000000
   86400.00000000  1       1.00000000
   86400.00000000  1       1.00000000
   86400.00000000  1       1.00000000
   86400.00000000  1       1.00000000
   86400.00000000  1       1.00000000
   86400.00000000  1       1.00000000
   86400.00000000  1       1.00000000
   86400.00000000  1       1.00000000
   86400.00000000  1       1.00000000
   86400.00000000  1       1.00000000
   86400.00000000  1       1.00000000
   86400.00000000  1       1.00000000
   86400.00000000  1       1.00000000
   86400.00000000  1       1.00000000
   86400.00000000  1       1.00000000
   86400.00000000  1       1.00000000
   86400.00000000  1       1.00000000
   86400.00000000  1       1.00000000
   86400.00000000  1       1.00000000
   86400.00000000  1       1.00000000
   86400.00000000  1       1.00000000
   86400.00000000  1       1.00000000
   86400.00000000  1       1.00000000
   86400.00000000  1       1.00000000
   86400.00000000  1       1.00000000
   86400.00000000  1       1.00000000
   86400.00000000  1       1.00000000
   86400.00000000  1       1.00000000
   86400.00000000  1       1.00000000
   86400.00000000  1       1.00000000
   86400.00000000  1       1.00000000
   86400.00000000  1       1.00000000
   86400.00000000  1       1.00000000
   86400.00000000  1       1.00000000
   86400.00000000  1       1.00000000
   86400.00000000  1       1.00000000
   86400.00000000  1       1.00000000
   86400.00000000  1       1.00000000
   86400.00000000  1       1.00000000
   86400.00000000  1       1.00000000
   86400.00000000  1       1.00000000
   86400.00000000  1       1.00000000
   86400.00000000  1       1.00000000
   86400.00000000  1       1.00000000
   86400.00000000  1       1.00000000
   86400.00000000  1       1.00000000
   86400.00000000  1       1.00000000
   86400.00000000  1       1.00000000
   86400.00000000  1       1.00000000
   86400.00000000  1       1.00000000
   86400.00000000  1       1.00000000
   86400.00000000  1       1.00000000
   86400.00000000  1       1.00000000
   86400.00000000  1       1.00000000
   86400.00000000  1       1.00000000
   86400.00000000  1       1.00000000
   86400.00000000  1       1.00000000
   86400.00000000  1       1.00000000
   86400.00000000  1       1.00000000
   86400.00000000  1       1.00000000
   86400.00000000  1       1.00000000
   86400.00000000  1       1.00000000
   86400.00000000  1       1.00000000
   86400.00000000  1       1.00000000
   86400.00000000  1       1.00000000
   86400.00000000  1       1.00000000
   86400.00000000  1       1.00000000
   86400.00000000  1       1.00000000
   86400.00000000  1       1.00000000
   86400.00000000  1       1.00000000
   86400.00000000  1       1.00000000
   86400.00000000  1       1.00000000
   86400.00000000  1       1.00000000
   86400.00000000  1       1.00000000
   86400.00000000  1       1.00000000
   86400.00000000  1       1.00000000
   86400.00000000  1       1.00000000
   86400.00000000  1       1.00000000
   86400.00000000  1       1.00000000
   86400.00000000  1       1.00000000
   86400.00000000  1       1.00000000
   86400.00000000  1       1.00000000
   86400.00000000  1       1.00000000
   86400.00000000  1       1.00000000
   86400.00000000  1       1.00000000
   86400.00000000  1       1.00000000
   86400.00000000  1       1.00000000
   86400.00000000  1       1.00000000
   86400.00000000  1       1.00000000
   86400.00000000  1       1.00000000
   86400.00000000  1       1.00000000
   86400.00000000  1       1.00000000
   86400.00000000  1       1.00000000
   86400.00000000  1       1.00000000
   86400.00000000  1       1.00000000
   86400.00000000  1       1.00000000
   86400.00000000  1       1.00000000
   86400.00000000  1       1.00000000
   86400.00000000  1       1.00000000
   86400.00000000  1       1.00000000
   86400.00000000  1       1.00000000
   86400.00000000  1       1.00000000
   86400.00000000  1       1.00000000
   86400.00000000  1       1.00000000
   86400.00000000  1       1.00000000
   86400.00000000  1       1.00000000
   86400.00000000  1       1.00000000
   86400.00000000  1       1.00000000
   86400.00000000  1       1.00000000
   86400.00000000  1       1.00000000
   86400.00000000  1       1.00000000
   86400.00000000  1       1.00000000
   86400.00000000  1       1.00000000
   86400.00000000  1       1.00000000
   86400.00000000  1       1.00000000
   86400.00000000  1       1.00000000
   86400.00000000  1       1.00000000
   86400.00000000  1       1.00000000
   86400.00000000  1       1.00000000
   86400.00000000  1       1.00000000
   86400.00000000  1       1.00000000
   86400.00000000  1       1.00000000
   86400.00000000  1       1.00000000
   86400.00000000  1       1.00000000
   86400.00000000  1       1.00000000
   86400.00000000  1       1.00000000
   86400.00000000  1       1.00000000
   86400.00000000  1       1.00000000
   86400.00000000  1       1.00000000
   86400.00000000  1       1.00000000
   86400.00000000  1       1.00000000
   86400.00000000  1       1.00000000
   86400.00000000  1       1.00000000
   86400.00000000  1       1.00000000
   86400.00000000  1       1.00000000
   86400.00000000  1       1.00000000
   86400.00000000  1       1.00000000
   86400.00000000  1       1.00000000
   86400.00000000  1       1.00000000
   86400.00000000  1       1.00000000
   86400.00000000  1       1.00000000
   86400.00000000  1       1.00000000
   86400.00000000  1       1.00000000
   86400.00000000  1       1.00000000
   86400.00000000  1       1.00000000
   86400.00000000  1       1.00000000
   86400.00000000  1       1.00000000
   86400.00000000  1       1.00000000
   86400.00000000  1       1.00000000
   86400.00000000  1       1.00000000
   86400.00000000  1       1.00000000
   86400.00000000  1       1.00000000
   86400.00000000  1       1.00000000
   86400.00000000  1       1.00000000
   86400.00000000  1       1.00000000
   86400.00000000  1       1.00000000
   86400.00000000  1       1.00000000
   86400.00000000  1       1.00000000
   86400.00000000  1       1.00000000
   86400.00000000  1       1.00000000
   86400.00000000  1       1.00000000
   86400.00000000  1       1.00000000
   86400.00000000  1       1.00000000
   86400.00000000  1       1.00000000
   86400.00000000  1       1.00000000
   86400.00000000  1       1.00000000
   86400.00000000  1       1.00000000
   86400.00000000  1       1.00000000
   86400.00000000  1       1.00000000
   86400.00000000  1       1.00000000
   86400.00000000  1       1.00000000
   86400.00000000  1       1.00000000
   86400.00000000  1       1.00000000
   86400.00000000  1       1.00000000
   86400.00000000  1       1.00000000
   86400.00000000  1       1.00000000
   86400.00000000  1       1.00000000
   86400.00000000  1       1.00000000
   86400.00000000  1       1.00000000
   86400.00000000  1       1.00000000
   86400.00000000  1       1.00000000
   86400.00000000  1       1.00000000
   86400.00000000  1       1.00000000
   86400.00000000  1       1.00000000
   86400.00000000  1       1.00000000
   86400.00000000  1       1.00000000
   86400.00000000  1       1.00000000
   86400.00000000  1       1.00000000
   86400.00000000  1       1.00000000
   86400.00000000  1       1.00000000
   86400.00000000  1       1.00000000
   86400.00000000  1       1.00000000