# File generated by Flopy version 3.3.4 on 11/17/2021 at 14:02:46.
BEGIN options
  COMPLEXITY  complex
END options

