# File generated by Flopy version 3.3.4 on 11/21/2021 at 20:34:01.
BEGIN options
  XORIGIN  1.10238512E+06
  YORIGIN  1.28136222E+06
END options

BEGIN dimensions
  NLAY  6
  NROW  21
  NCOL  27
END dimensions

BEGIN griddata
  delr
    INTERNAL  FACTOR  1.0
       180.00000000     180.00000000     180.00000000     180.00000000     180.00000000     180.00000000     180.00000000     180.00000000     180.00000000     180.00000000     180.00000000     180.00000000     120.00000000      80.00000000      80.00000000      80.00000000      80.00000000      80.00000000      80.00000000      80.00000000      80.00000000      80.00000000      80.00000000      80.00000000     120.00000000     180.00000000     180.00000000
  delc
    INTERNAL  FACTOR  1.0
       180.00000000     180.00000000     180.00000000     180.00000000     180.00000000     180.00000000     180.00000000     180.00000000     180.00000000     180.00000000     180.00000000     120.00000000      80.00000000      80.00000000      80.00000000      80.00000000      80.00000000     120.00000000     180.00000000     180.00000000     180.00000000
  top
    INTERNAL  FACTOR  1.0
       660.00000000     609.00000000     614.00000000     628.00000000     639.00000000     636.00000000     635.00000000     652.00000000     706.00000000     761.00000000     781.00000000     777.00000000     760.00000000     763.00000000     767.00000000     759.00000000     759.00000000     782.00000000     792.00000000     810.00000000     827.00000000     827.00000000     837.00000000     856.00000000     864.00000000     810.00000000     843.00000000
       739.00000000     694.00000000     714.00000000     660.00000000     612.96862793     610.29577637     612.00000000     614.00000000     645.33636475     710.70300293     755.86462402     744.00000000     728.09515381     724.00000000     732.14111328     731.39550781     710.00000000     718.80456543     772.02325439     779.76373291     808.45684814     839.10461426     856.00000000     829.43927002     826.39642334     804.00000000     837.00000000
       789.00000000     752.00000000     686.00000000     626.00000000     608.48382568     616.10272217     617.63671875     642.53350830     618.61529541     726.99554443     733.73986816     702.31451416     699.52001953     709.16284180     708.73626709     700.00000000     696.27777100     724.77691650     758.79010010     779.60107422     807.54626465     826.44146729     817.30316162     801.82440186     804.00000000     782.00000000     839.00000000
       736.00000000     708.00000000     642.00000000     618.00000000     610.29028320     617.67663574     623.86480713     655.17523193     629.27539062     691.71691895     676.34460449     686.00000000     693.76629639     684.00000000     690.29675293     710.15783691     740.00000000     751.79724121     760.00000000     773.24468994     785.99078369     785.33343506     780.75048828     774.56481934     792.00000000     777.00000000     869.00000000
       727.00000000     687.00000000     635.00000000     622.00000000     612.00000000     621.18878174     626.55682373     680.00000000     652.57086182     627.95739746     651.51116943     656.46582031     657.75250244     656.00000000     659.22863770     689.38049316     712.73846436     746.64727783     773.45428467     774.18597412     765.10278320     755.68792725     740.00000000     751.55444336     747.00000000     814.00000000     847.00000000
       687.00000000     661.00000000     633.00000000     625.00000000     614.08898926     631.73828125     648.07989502     697.34155273     703.75842285     628.00000000     634.58886719     640.76385498     645.76336670     655.53277588     663.15869141     673.04541016     712.22650146     743.27722168     746.45214844     744.00000000     743.26556396     739.52368164     743.00000000     722.00000000     747.00000000     780.00000000     843.00000000
       668.00000000     641.00000000     624.00000000     622.00000000     612.00000000     644.38696289     662.55267334     693.93780518     739.02856445     700.00000000     664.37438965     654.22644043     649.72454834     648.00000000     642.56732178     667.59637451     695.54742432     723.32653809     713.69537354     719.20318604     728.31604004     734.00000000     715.00000000     709.00000000     768.00000000     810.00000000     834.00000000
       671.00000000     627.00000000     626.00000000     627.00000000     636.00000000     663.29870605     658.00000000     718.71716309     742.00000000     713.92309570     710.00000000     678.90515137     668.22906494     651.59234619     644.00000000     651.62451172     658.37884521     679.07727051     685.35461426     668.90875244     684.90850830     688.00000000     697.00000000     709.00000000     735.00000000     775.00000000     803.00000000
       656.00000000     626.00000000     629.00000000     614.00000000     654.13641357     679.98968506     661.63226318     704.20220947     742.00000000     738.49707031     732.00000000     702.34918213     683.24090576     673.60852051     659.83160400     669.96929932     671.66723633     670.06878662     674.52203369     688.06054688     691.35961914     658.57324219     654.00000000     655.94573975     658.32794189     697.00000000     767.00000000
       636.00000000     629.00000000     620.00000000     644.50158691     668.00762939     693.81286621     708.36175537     709.83819580     748.00000000     745.72070312     739.93780518     729.67321777     712.00000000     694.88940430     692.28082275     684.38116455     696.00000000     699.12359619     717.46081543     732.84271240     730.19049072     731.99615479     747.87878418     751.48571777     722.72381592     664.00000000     708.00000000
       635.00000000     620.00000000     620.00000000     660.31353760     719.99041748     712.00000000     740.54766846     724.81610107     789.41101074     760.30572510     763.61553955     747.82012939     736.40264893     723.92523193     728.35565186     727.84613037     725.91882324     700.27301025     726.46447754     748.04949951     770.18939209     792.90045166     786.49395752     780.31744385     734.00122070     688.30590820     664.85595703
       624.06140137     627.32971191     638.00000000     674.42047119     701.81542969     735.03045654     752.00000000     739.69042969     791.79626465     784.06915283     775.03936768     761.08892822     756.84588623     746.22552490     728.25708008     737.51782227     743.68041992     751.97564697     761.39654541     768.24871826     781.78045654     794.10595703     814.38952637     808.68572998     757.55706787     701.11523438     695.42535400
       626.00000000     641.82385254     666.45300293     708.49139404     736.23547363     749.56066895     746.11041260     754.50317383     776.00000000     789.69134521     785.54833984     778.39086914     770.07769775     750.83874512     745.37628174     738.21478271     762.00000000     766.00000000     771.26300049     778.74560547     795.74957275     796.60198975     827.10021973     813.28033447     773.23406982     742.04980469     740.11425781
       636.55957031     638.00000000     676.95172119     712.70837402     729.59332275     718.37219238     744.29071045     759.88824463     803.52624512     792.95971680     790.27056885     784.96527100     783.98028564     770.41204834     770.23443604     742.00000000     776.31030273     778.82415771     785.25079346     791.01464844     803.45471191     808.96520996     824.50189209     831.33813477     795.94232178     770.76031494     776.71282959
       641.73303223     668.25451660     660.66424561     695.55957031     690.92224121     725.87689209     761.02404785     793.67669678     819.10821533     798.85272217     804.58715820     790.00000000     790.13604736     785.48742676     776.00000000     754.55993652     777.38848877     787.40002441     789.75347900     795.37231445     807.93200684     816.07379150     825.19049072     849.02343750     815.50122070     774.36688232     800.33569336
       670.00000000     687.62066650     660.90319824     669.20434570     703.13549805     744.55645752     793.38385010     836.29681396     849.74169922     823.91094971     808.50579834     807.31231689     801.30053711     796.64019775     791.33746338     759.39379883     777.45068359     790.78924561     793.16564941     801.60382080     813.81512451     822.51281738     827.19146729     847.58172607     834.55108643     778.00000000     831.39953613
       661.52813721     695.85412598     684.21325684     680.00000000     741.25073242     768.19195557     815.18145752     878.00000000     895.29620361     853.42126465     814.03637695     824.67169189     828.66601562     812.73394775     772.82342529     802.26940918     779.98413086     795.44696045     800.00000000     816.17803955     823.71185303     828.00000000     839.99493408     875.06201172     848.50421143     803.28369141     853.07824707
       656.05859375     731.95825195     707.25274658     707.14489746     701.85656738     748.12573242     816.69366455     855.61859131     892.00000000     879.06872559     842.46661377     830.00000000     822.26422119     818.37908936     822.96875000     821.13287354     822.00000000     807.74530029     822.65759277     829.78411865     830.82281494     844.15521240     860.74060059     889.16729736     885.23950195     836.95727539     892.38543701
       665.82696533     705.59313965     761.58978271     772.26708984     731.56481934     773.23754883     789.13439941     824.28558350     900.00000000     903.53417969     869.32342529     841.17309570     833.43408203     833.31262207     834.62457275     834.01354980     833.76013184     834.00000000     836.72271729     844.44598389     852.57574463     870.67681885     883.43066406     923.54675293     943.12292480     902.54211426     959.69134521
       696.20245361     755.63317871     741.73510742     813.96240234     805.20581055     803.35406494     775.67224121     839.65051270     910.00000000     917.32025146     919.72528076     896.43572998     888.92382812     887.08471680     886.29248047     881.05908203     882.92456055     890.80285645     898.23193359     909.52856445     914.11340332     933.73571777     962.70794678     974.61535645     978.61413574     984.16326904     994.30755615
       667.01202393     671.76263428     710.93566895     740.03479004     805.75744629     806.82940674     862.00000000     866.08959961     870.12158203     920.67498779     928.35198975     934.49005127     941.33239746     946.00000000     949.26879883     953.83197021     957.26184082     960.35388184     964.00000000     966.94049072     969.60858154     976.00000000     976.92199707     982.29589844     985.85473633     992.54852295     998.00000000
  botm
    INTERNAL  FACTOR  1.0
       659.00000000     608.00000000     613.00000000     627.00000000     638.00000000     635.00000000     634.00000000     651.00000000     689.29302979     689.29302979     689.29302979     633.83300781     639.85302734     640.96997070     640.96997070     640.96997070     641.91400146     641.84002686     641.84002686     641.84002686     637.88500977     637.88500977     637.88500977     637.88500977     637.88500977     637.88500977     637.77398682
       705.74798584     693.00000000     705.74798584     659.00000000     611.96862793     609.29577637     611.00000000     613.00000000     644.33636475     689.29302979     694.93298340     633.15399170     639.85302734     640.96997070     640.96997070     641.91400146     641.91400146     641.84002686     641.84002686     637.88500977     637.88500977     637.88500977     637.88500977     637.88500977     637.88500977     637.77398682     637.77398682
       705.74798584     705.74798584     685.00000000     625.00000000     607.48382568     615.10272217     616.63671875     641.53350830     617.61529541     689.29302979     694.93298340     633.15399170     639.85302734     640.96997070     640.96997070     641.91400146     641.84002686     641.84002686     637.88500977     637.88500977     637.88500977     637.88500977     637.88500977     637.77398682     637.77398682     637.77398682     637.77398682
       705.74798584     705.74798584     641.00000000     617.00000000     609.29028320     616.67663574     622.86480713     654.17523193     628.27539062     690.71691895     633.83300781     633.15399170     639.85302734     640.96997070     641.91400146     641.84002686     641.84002686     637.88500977     637.88500977     637.88500977     636.44702148     637.77398682     637.77398682     637.77398682     637.77398682     637.77398682     723.52600098
       705.74798584     686.00000000     634.00000000     621.00000000     611.00000000     620.18878174     625.55682373     679.00000000     651.57086182     626.95739746     633.83300781     633.15399170     639.85302734     640.96997070     641.84002686     638.69500732     637.88500977     637.88500977     636.43597412     637.77398682     637.77398682     637.77398682     637.77398682     637.77398682     638.31597900     723.52600098     723.52600098
       686.00000000     660.00000000     632.00000000     624.00000000     613.08898926     630.73828125     647.07989502     696.34155273     684.36251428     627.00000000     633.58886719     637.41101074     639.85302734     641.91400146     638.69500732     637.88500977     637.77398682     637.77398682     637.77398682     638.31597900     638.31597900     638.31597900     638.31597900     721.00000000     723.52600098     723.52600098     726.92797852
       667.00000000     640.00000000     623.00000000     621.00000000     611.00000000     643.38696289     661.55267334     692.93780518     704.95498599     676.97721824     647.91786813     653.22644043     647.90997314     627.81425186     637.77398682     638.31597900     638.31597900     638.31597900     638.31597900     660.46600342     660.46600342     723.52600098     714.00000000     708.00000000     726.92797852     726.92797852     726.92797852
       670.00000000     626.00000000     625.00000000     626.00000000     635.00000000     662.29870605     657.00000000     699.47178786     719.59041634     691.20607935     681.69695048     666.12097168     665.40734657     650.59234619     643.00000000     643.04400635     653.70001221     654.86102295     660.46600342     667.90875244     683.90850830     687.00000000     696.00000000     708.00000000     726.92797852     730.49902344     797.45501709
       655.00000000     625.00000000     628.00000000     613.00000000     653.13641357     678.98968506     660.63226318     703.20220947     732.57107518     722.61295731     710.97453470     693.63481660     680.62597656     667.94267594     650.24448997     643.78536846     666.46696669     663.84399414     673.52203369     687.06054688     690.35961914     657.57324219     653.00000000     654.94573975     657.32794189     696.00000000     766.00000000
       635.00000000     628.00000000     619.00000000     643.50158691     667.00762939     692.81286621     707.36175537     708.83819580     741.80719263     738.88453092     725.96528575     724.00698808     698.99766168     686.89475803     688.95151377     682.99594768     679.46246952     692.58365184     707.78710593     727.80102539     727.80102539     727.80102539     746.87878418     750.48571777     721.72381592     663.00000000     707.00000000
       634.00000000     619.00000000     619.00000000     659.31353760     718.99041748     711.00000000     739.54766846     723.81610107     767.18191337     750.95845272     730.35308606     739.15974592     717.49074597     713.43063076     720.03239884     716.63317441     720.91229958     695.82501221     717.08515400     728.66988536     768.63500977     788.35601807     785.49395752     779.31744385     733.00122070     687.30590820     663.85595703
       623.06140137     626.32971191     637.00000000     673.42047119     700.81542969     734.03045654     751.00000000     738.69042969     767.58850830     774.06444908     764.36784068     754.16190436     739.70016427     735.26427223     721.21901317     708.35123915     723.25867493     737.27321270     745.93161152     749.49613316     760.02967293     785.86297750     810.86499023     807.68572998     756.55706787     700.11523438     694.42535400
       625.00000000     640.82385254     665.45300293     707.49139404     735.23547363     748.56066895     745.11041260     753.50317383     762.01575803     778.18172719     773.88111456     765.78435063     758.50563578     742.67312260     736.73461790     735.89898682     748.71862463     757.41806195     765.38131833     770.94492670     782.95693494     793.51197789     823.57098389     812.28033447     772.23406982     741.04980469     739.11425781
       635.55957031     637.00000000     675.95172119     711.70837402     728.59332275     717.37219238     743.29071045     758.88824463     800.01098633     775.90086294     774.97556588     770.04235863     760.87808110     749.90129237     751.13606221     739.97399902     743.60167358     760.91599998     768.54990704     775.37648861     786.58872883     796.83750011     823.50189209     830.33813477     794.94232178     769.76031494     775.71282959
       640.73303223     667.25451660     659.66424561     694.55957031     689.92224121     724.87689209     760.02404785     792.67669678     800.01098633     794.12715113     785.26594038     782.02376241     774.32885901     770.84767252     768.51290064     741.48175168     759.19438811     781.00422038     775.90000604     782.34303370     796.43299137     807.11967595     819.34171924     839.23101807     814.50122070     773.36688232     799.33569336
       669.00000000     686.62066650     659.90319824     668.20434570     702.13549805     743.55645752     792.38385010     835.29681396     848.74169922     798.79400635     790.12795710     789.86478002     782.20724509     783.58700692     764.97078964     745.04699707     769.66724435     778.37879520     776.43454196     786.39233999     803.17070152     813.87130297     826.19146729     839.90748575     833.55108643     777.00000000     830.18798828
       660.52813721     694.85412598     683.21325684     679.00000000     740.25073242     767.19195557     814.18145752     861.17298416     839.92996810     849.95300293     808.75119602     784.81432257     779.22042297     774.74490044     767.04963392     777.32333912     768.70890299     784.49782414     783.54666988     788.86747959     800.39267132     812.01699134     830.63871789     823.04236114     828.78352497     802.28369141     839.37298584
       655.05859375     730.95825195     706.25274658     706.14489746     700.85656738     747.12573242     815.69366455     854.61859131     857.69240442     835.10068951     819.99983395     781.14477784     777.80532804     777.31773034     784.87452560     808.18775385     798.93504593     799.48671475     797.30742649     793.15932569     797.09111687     811.09000353     831.47339652     817.78290209     808.89641409     813.62609046     849.42401123
       664.82696533     704.59313965     760.58978271     771.26708984     730.56481934     772.23754883     788.13439941     823.28558350     862.94546318     834.59555801     840.16868107     813.42882185     808.18714330     818.79569251     819.74580567     820.94612134     825.71857023     822.88036807     816.64481068     816.38260394     825.77838356     846.54953207     841.80381853     838.75610901     836.35539027     845.54941284     847.54552647
       695.20245361     754.63317871     740.73510742     812.96240234     804.20581055     802.35406494     774.67224121     838.65051270     842.29093314     842.48543336     844.10252484     847.92434388     855.07401543     863.21414560     869.09089855     876.46353873     881.92456055     885.22793900     881.37567604     871.06780001     859.48903116     851.40402262     847.87300768     847.50101992     848.26795998     858.65802002     868.55499268
       666.01202393     670.76263428     709.93566895     739.03479004     804.75744629     805.82940674     861.00000000     856.76702881     869.12158203     845.72642479     843.78170066     847.69977850     862.24298096     872.70397949     876.88800049     881.87200928     888.01702881     892.50000000     890.33300781     882.78497314     866.83898926     859.60302734     849.12902832     848.04699707     848.50799561     852.16302490     872.20501709
       659.00000000     608.00000000     613.00000000     627.00000000     638.00000000     635.00000000     634.00000000     651.00000000     689.29302979     689.29302979     689.29302979     633.83300781     639.85302734     640.96997070     640.96997070     640.96997070     641.91400146     641.84002686     641.84002686     641.84002686     637.88500977     637.88500977     637.88500977     637.88500977     637.88500977     637.88500977     637.77398682
       686.27700806     693.00000000     701.05349731     659.00000000     611.96862793     609.29577637     611.00000000     613.00000000     644.33636475     689.29302979     694.93298340     633.15399170     639.85302734     640.96997070     640.96997070     641.91400146     641.91400146     641.84002686     641.84002686     637.88500977     637.88500977     637.88500977     637.88500977     637.88500977     637.88500977     637.77398682     637.77398682
       686.27700806     686.27700806     685.00000000     625.00000000     607.48382568     615.10272217     616.63671875     641.53350830     617.61529541     689.29302979     694.93298340     633.15399170     639.85302734     640.96997070     640.96997070     641.91400146     641.84002686     641.84002686     637.88500977     637.88500977     637.88500977     637.88500977     637.88500977     637.77398682     637.77398682     637.77398682     637.77398682
       686.27700806     686.27700806     641.00000000     617.00000000     609.29028320     616.67663574     622.86480713     654.17523193     628.27539062     690.71691895     633.83300781     633.15399170     639.85302734     640.96997070     641.91400146     641.84002686     641.84002686     637.88500977     637.88500977     637.88500977     636.44702148     637.77398682     637.77398682     637.77398682     637.77398682     637.77398682     723.52600098
       690.87197876     682.01348877     634.00000000     621.00000000     611.00000000     620.18878174     625.55682373     679.00000000     651.57086182     626.95739746     633.83300781     633.15399170     639.85302734     640.96997070     641.84002686     638.69500732     637.88500977     637.88500977     636.43597412     637.77398682     637.77398682     637.77398682     637.77398682     637.77398682     638.31597900     723.52600098     723.52600098
       680.99798584     660.00000000     632.00000000     624.00000000     613.08898926     630.73828125     647.07989502     694.54278564     684.36251428     627.00000000     633.58886719     637.41101074     639.85302734     641.91400146     638.69500732     637.88500977     637.77398682     637.77398682     637.77398682     638.31597900     638.31597900     638.31597900     638.31597900     721.00000000     723.52600098     723.52600098     726.92797852
       667.00000000     640.00000000     623.00000000     621.00000000     611.00000000     643.38696289     661.55267334     670.24907834     686.25972115     671.89760570     647.91786813     653.22644043     647.90997314     627.81425186     637.77398682     638.31597900     638.31597900     638.31597900     638.31597900     660.46600342     660.46600342     703.46301270     714.00000000     708.00000000     726.92797852     726.92797852     726.92797852
       670.00000000     626.00000000     625.00000000     626.00000000     635.00000000     662.29870605     657.00000000     670.05418149     704.78439927     680.98630434     672.35180220     666.12097168     665.40734657     650.59234619     643.00000000     643.04400635     653.70001221     654.86102295     660.46600342     667.90875244     683.90850830     687.00000000     696.00000000     708.00000000     726.92797852     730.49902344     783.25750732
       655.00000000     625.00000000     628.00000000     613.00000000     653.13641357     674.02685547     660.63226318     677.61758373     704.64605781     699.49582614     690.50985046     686.23455637     680.62597656     667.94267594     650.24448997     643.78536846     666.46696669     663.84399414     673.52203369     687.06054688     690.35961914     657.57324219     653.00000000     654.94573975     657.32794189     696.00000000     766.00000000
       635.00000000     628.00000000     619.00000000     643.50158691     667.00762939     680.82350000     692.23535457     693.02053196     716.20812101     713.46020454     703.38687412     693.38615885     685.89378062     678.60526054     679.43586160     676.43513107     676.59801947     683.99116290     701.98855418     727.80102539     727.80102539     727.80102539     746.87878418     750.48571777     721.72381592     663.00000000     707.00000000
       634.00000000     619.00000000     619.00000000     659.31353760     692.71277071     686.98183679     707.62164521     705.99375548     740.61699938     728.42104349     710.76892285     707.37599422     703.39862067     698.82790682     697.28119475     691.62672968     695.84603445     692.42700195     712.86428438     728.66988536     759.11037711     765.15024388     765.59145134     766.47592395     733.00122070     687.30590820     663.85595703
       623.06140137     626.32971191     637.00000000     673.42047119     683.66889937     697.29392119     719.65364047     726.83835255     744.61807774     747.92569882     739.33017303     721.39467038     720.64247745     720.45587144     710.12023499     702.11894147     711.54199556     726.65213315     736.42429783     741.58584306     754.20886868     769.74903740     779.47103781     778.06762265     756.55706787     700.11523438     694.42535400
       625.00000000     640.82385254     660.42137757     686.74852657     695.71298940     710.08385715     723.23589329     735.83613690     742.31067874     749.21800356     745.66034452     740.91481978     738.22846645     729.98520114     727.55652302     726.46832392     731.58662352     737.16949016     745.63516163     750.49340900     761.80927316     778.80897200     792.13361672     784.04640246     772.23406982     741.04980469     739.11425781
       635.55957031     637.00000000     675.95172119     711.70837402     688.51175249     699.21363594     728.00377092     743.16180139     765.70955820     747.95366340     741.82771892     742.19428324     738.67911174     735.86845412     738.20444347     727.70302400     725.26862106     738.79548082     747.13018750     751.69215587     761.07551526     787.76864418     802.36686799     804.07805353     781.13119627     769.24966431     765.66192627
       640.73303223     667.25451660     659.66424561     687.52697350     682.42456205     711.33570498     739.95328657     765.50228364     771.12787367     765.18066832     754.51869644     750.97729509     745.33655248     746.53496225     749.84116215     732.36760137     737.35022208     750.33581062     749.94420390     754.89366153     767.30135193     803.77102519     805.81756386     812.81471086     790.63987263     765.40262347     777.47335815
       669.00000000     685.10684204     659.90319824     668.20434570     690.76093270     725.02212024     756.94532273     789.27270656     797.21783654     769.41735380     761.60307535     756.96313337     749.37508579     751.44377688     750.96792512     740.19685632     745.97402675     750.98694616     751.28644828     757.44704674     770.01375243     796.73594952     807.40595028     812.91502178     802.10395537     767.64151001     791.53549194
       660.52813721     685.61557007     683.21325684     679.00000000     708.85440783     729.85995631     765.53288641     798.65442313     793.82235944     796.45322107     770.85684654     756.28463132     750.65117568     750.52918418     755.27358936     764.21006304     752.85185124     756.91227971     756.50985342     761.47662862     774.55358433     793.67414584     804.77606470     802.50542135     801.18892376     785.14785767     808.42398071
       655.05859375     714.07711792     701.72436523     700.98794556     700.85656738     708.74700309     760.50392394     793.26983872     806.70075626     792.34704511     777.99896742     758.09215488     757.82139796     758.72609366     766.94506902     783.95391356     777.35022332     773.35226155     771.59302722     772.44215770     780.01081113     793.07344372     805.36837090     797.84656452     792.08337206     794.71246009     816.91000366
       664.82696533     700.89456177     728.89288330     737.32254028     699.78091431     714.93842698     740.13535456     775.89628726     806.40012387     793.94723467     794.29325176     782.48655660     784.34531443     792.24214531     793.12185261     794.65013644     798.79600314     796.83236256     792.79048955     792.21398998     797.46684389     808.88407426     807.36143709     807.02725781     808.36204927     816.57481751     818.83849297
       695.20245361     725.91458130     722.05654907     751.63220215     729.64489746     738.94754028     736.26644531     781.88051998     790.39505979     799.83148151     802.16632492     807.14409825     815.18410935     821.58437485     825.70754992     829.91185751     833.59415879     836.48449861     835.84299132     830.95171834     824.25416466     818.87912430     816.07217526     815.66418064     817.34965392     826.79049683     834.10098267