# File generated by Flopy version 3.3.6 on 08/05/2022 at 21:26:55.
BEGIN options
  SAVE_FLOWS
END options

BEGIN dimensions
  MAXBOUND  1491
END dimensions

BEGIN period  1
  1 114 27     747.07367229       0.00160000
  1 39 262     688.59583480       0.00160000
  1 45 156     725.72552152  1.20000000E-04
  1 44 111     706.51124797  1.20000000E-04
  1 111 21     717.38526668       0.00160000
  1 102 52     804.81052812  9.11250000E-04
  1 103 17     672.03090538       0.00136687
  1 30 33     693.91136552       0.00160000
  1 58 131     769.07707983  9.00000000E-06
  1 117 37     840.97204994       0.00160000
  1 41 78     683.57218106  1.20000000E-04
  1 107 23     733.59996586       0.00160000
  1 26 35     693.26009773       0.00160000
  1 46 13     630.53226873       0.00160000
  1 118 38     850.40861106       0.00160000
  1 104 103     788.46849366  1.20000000E-04
  1 23 29     641.40622847       0.00160000
  1 55 98     765.03565812  2.02500000E-05
  1 107 108     810.28393160  1.20000000E-04
  1 76 157     784.96400905  9.00000000E-06
  1 108 109     810.43635352  1.20000000E-04
  1 58 108     765.91644570  9.00000000E-06
  1 111 263     925.21915280       0.00160000
  1 43 245     763.47523086  1.20000000E-04
  1 83 52     790.12759206  1.20000000E-04
  1 68 158     781.60651141  9.00000000E-06
  1 40 239     725.24365213  1.20000000E-04
  1 36 205     660.72564953  1.20000000E-04
  1 43 101     700.12884382  1.20000000E-04
  1 65 268     727.25774711  1.20000000E-04
  1 52 69     744.29384909  6.83437500E-05
  1 104 116     790.01619890  1.20000000E-04
  1 36 61     656.26706678       0.00136687
  1 48 35     740.66928473       0.00160000
  1 45 146     723.23490943  1.20000000E-04
  1 46 111     704.59061557  1.20000000E-04
  1 37 62     664.63075498  9.11250000E-04
  1 41 32     682.77921298       0.00160000
  1 53 6     635.34912292  6.07500000E-04
  1 106 18     681.42691770       0.00160000
  1 76 26     712.49633027  1.20000000E-04
  1 43 114     704.92507895  1.20000000E-04
  1 104 93     782.25667635  1.20000000E-04
  1 75 66     744.27204018  1.35000000E-05
  1 46 268     676.95938195       0.00160000
  1 102 19     682.81053062  9.11250000E-04
  1 29 35     697.71919505       0.00160000
  1 49 13     643.08022891       0.00160000
  1 108 99     817.86143054  1.20000000E-04
  1 45 159     731.51621067  1.20000000E-04
  1 64 29     734.04782598  1.20000000E-04
  1 30 36     713.31940547       0.00160000
  1 79 157     786.60767569  9.00000000E-06
  1 76 268     736.03208825  1.20000000E-04
  1 43 91     691.90332977  1.20000000E-04
  1 109 36     833.95396627       0.00160000
  1 100 216     815.17227670  3.03750000E-05
  1 86 52     790.63930784  1.20000000E-04
  1 104 106     788.27540767  1.20000000E-04
  1 89 63     749.00000000  4.55625000E-05
  1 46 101     704.33604692  1.20000000E-04
  1 91 23     696.64050601  1.20000000E-04
  1 37 52     702.35785459       0.00160000
  1 58 111     765.63457002  9.00000000E-06
  1 44 176     764.25880530  1.20000000E-04
  1 24 54     639.00000000       0.00160000
  1 104 83     766.95044372  1.20000000E-04
  1 56 6     636.49681051  1.80000000E-04
  1 45 113     703.34315718  1.20000000E-04
  1 77 65     744.48238389  2.02500000E-05
  1 48 267     694.25931688       0.00160000
  1 47 79     715.66894231  1.20000000E-04
  1 57 123     767.84047651  9.00000000E-06
  1 113 24     743.51539899       0.00160000
  1 116 29     765.02221755       0.00160000
  1 87 151     790.53221190  9.00000000E-06
  1 42 265     680.11269092       0.00160000
  1 109 26     739.53172411       0.00160000
  1 100 206     809.47865892  3.03750000E-05
  1 45 270     665.16769917       0.00160000
  1 105 141     800.42913777  1.20000000E-04
  1 25 32     662.20661550       0.00160000
  1 79 268     740.56440978  1.20000000E-04
  1 46 91     708.17939792  1.20000000E-04
  1 93 23     697.89767288  1.20000000E-04
  1 39 52     713.01486452       0.00160000
  1 59 30     735.63237059  1.20000000E-04
  1 50 61     727.97672940       0.00136687
  1 7 19     609.25557383       0.00160000
  1 51 62     732.18345658  7.78478027E-04
  1 92 63     749.00000000  4.55625000E-05
  1 56 140     771.37806753  1.35000000E-05
  1 42 242     762.37100102  1.20000000E-04
  1 103 72     757.55635196  1.02515625E-04
  1 94 23     698.52625631  1.20000000E-04
  1 47 177     756.61137522  1.20000000E-04
  1 35 59     658.93580237       0.00160000
  1 25 45     637.06361194       0.00160000
  1 38 64     673.04187163  4.05000000E-04
  1 37 248     655.84683869  1.20000000E-04
  1 110 89     825.87965760  1.20000000E-04
  1 69 51     787.02564124  1.20000000E-04
  1 60 268     728.30503240  1.20000000E-04
  1 81 25     708.37240235  1.20000000E-04
  1 27 54     649.73419725       0.00160000
  1 46 104     703.99923871  1.20000000E-04
  1 44 143     718.20301176  1.20000000E-04
  1 51 39     772.51082239       0.00136687
  1 28 55     654.37572186       0.00160000
  1 52 3     627.95118572  9.11250000E-04
  1 103 85     777.63261416  1.02515625E-04
  1 47 190     772.23015425  1.20000000E-04
  1 108 20     696.65297865       0.00160000
  1 53 84     754.81011857  4.55625000E-05
  1 105 131     798.42996978  1.20000000E-04
  1 106 96     803.58176066  1.20000000E-04
  1 24 57     639.00000000       0.00160000
  1 36 31     675.77263377       0.00160000
  1 54 85     751.65384754  3.03750000E-05
  1 100 52     799.20048166  4.05000000E-04
  1 112 26     761.42785880       0.00160000
  1 37 261     659.82615657       0.00160000
  1 50 51     774.19383796       0.00160000
  1 41 231     733.76353136  1.20000000E-04
  1 28 32     671.52403129       0.00160000
  1 42 232     753.02587613  1.20000000E-04
  1 103 62     757.26591713  7.78478027E-04
  1 82 268     747.94391980  1.20000000E-04
  1 61 65     746.53358170  2.02500000E-05
  1 86 9     643.13519044  1.20000000E-04
  1 24 34     688.34323354       0.00160000
  1 44 12     620.64009935       0.00160000
  1 42 88     690.55344069  1.20000000E-04
  1 46 58     733.28136860       0.00160000
  1 105 144     802.79565789  1.20000000E-04
  1 109 114     817.85708723  1.20000000E-04
  1 55 143     772.12895421  2.02500000E-05
  1 27 44     675.06143352       0.00160000
  1 112 268     922.63241737       0.00160000
  1 44 133     714.57920170  1.20000000E-04
  1 40 248     727.82170565  1.20000000E-04
  1 63 268     727.69915232  1.20000000E-04
  1 103 75     761.06891820  1.02515625E-04
  1 35 206     653.26839603  1.20000000E-04
  1 34 61     649.92867212       0.00136687
  1 47 180     758.97890902  1.20000000E-04
  1 26 57     648.41321258       0.00160000
  1 44 254     770.85421932  1.20000000E-04
  1 109 91     819.94976871  1.20000000E-04
  1 35 62     652.91687325  9.11250000E-04
  1 38 67     679.26798336  1.20000000E-04
  1 39 32     680.49443172       0.00160000
  1 44 110     705.74763791  1.20000000E-04
  1 41 221     733.51590129  1.20000000E-04
  1 103 52     808.52836492       0.00136687
  1 41 77     682.26385265  1.20000000E-04
  1 88 9     642.05533053  1.20000000E-04
  1 53 51     783.32618982  6.07500000E-04
  1 43 123     709.77126259  1.20000000E-04
  1 55 97     764.48768582  2.02500000E-05
  1 108 23     722.57681618       0.00160000
  1 47 13     633.36207023       0.00160000
  1 106 99     808.70420793  1.20000000E-04
  1 36 263     663.93559924       0.00160000
  1 108 108     810.57875653  1.20000000E-04
  1 27 34     694.81213206       0.00160000
  1 44 123     709.00000000  1.20000000E-04
  1 43 244     763.23978684  1.20000000E-04
  1 102 64     752.23136506  2.30660156E-04
  1 46 169     745.00427778  1.20000000E-04
  1 84 52     790.29816399  1.20000000E-04
  1 26 47     643.67511038       0.00160000
  1 104 115     788.76942124  1.20000000E-04
  1 69 8     641.23650713  1.20000000E-04
  1 108 265     856.70008237       0.00160000
  1 35 52     694.27437414       0.00160000
  1 66 268     727.60107746  1.20000000E-04
  1 37 61     660.27047391       0.00136687
  1 48 70     720.82245836  1.20000000E-04
  1 27 47     655.88271446       0.00160000
  1 64 51     786.28731006  1.20000000E-04
  1 83 64     747.90348380  3.03750000E-05
  1 95 267     750.31524113  1.20000000E-04
  1 42 32     685.48057108       0.00160000
  1 40 251     727.49669076  1.20000000E-04
  1 34 28     653.00000000       0.00160000
  1 54 6     635.78534591  4.05000000E-04
  1 59 121     767.73579307  9.00000000E-06
  1 105 88     780.04504702  1.20000000E-04
  1 43 113     704.46780398  1.20000000E-04
  1 35 29     654.72200487       0.00160000
  1 46 267     684.19441448       0.00160000
  1 38 263     667.77413395       0.00160000
  1 56 51     785.36855166  1.80000000E-04
  1 114 29     787.59637124       0.00160000
  1 45 158     729.58598095  1.20000000E-04
  1 111 23     729.54793303       0.00160000
  1 103 19     681.18905895       0.00136687
  1 58 133     769.41260587  9.00000000E-06
  1 43 90     691.91966825  1.20000000E-04
  1 109 35     822.14677282       0.00160000
  1 80 157     787.21678098  9.00000000E-06
  1 65 28     725.28507503  1.20000000E-04
  1 118 40     879.23199540       0.00160000
  1 104 105     788.58782975  1.20000000E-04
  1 23 31     653.78702303       0.00160000
  1 107 110     812.51598717  1.20000000E-04
  1 87 52     790.74600003  1.20000000E-04
  1 99 26     744.11255385  2.70000000E-04
  1 91 22     690.57556768  1.20000000E-04
  1 83 18     712.15127584  1.20000000E-04
  1 29 47     689.51933063       0.00160000
  1 58 110     765.69485089  9.00000000E-06
  1 92 23     697.26908944  1.20000000E-04
  1 43 247     763.97403134  1.20000000E-04
  1 40 241     726.14223148  1.20000000E-04
  1 53 31     744.22185560  6.07500000E-04
  1 43 103     700.85557159  1.20000000E-04
  1 67 51     786.72802004  1.20000000E-04
  1 79 25     710.53099116  1.20000000E-04
  1 52 71     746.28395249  6.83437500E-05
  1 25 54     639.99005647       0.00160000
  1 104 118     792.25764009  1.20000000E-04
  1 47 258     793.56037550  6.07500000E-04
  1 45 148     723.35158380  1.20000000E-04
  1 46 113     705.62197341  1.20000000E-04
  1 78 65     744.98642007  2.02500000E-05
  1 87 150     790.34275198  9.00000000E-06
  1 58 123     767.95399853  9.00000000E-06
  1 109 25     740.99657256       0.00160000
  1 74 67     744.90147608  9.00000000E-06
  1 100 205     809.09565431  3.03750000E-05
  1 45 269     670.28038195       0.00160000
  1 26 27     638.91749533       0.00160000
  1 67 28     725.32476520  1.20000000E-04
  1 104 95     785.28356396  1.20000000E-04
  1 110 26     750.28508099       0.00160000
  1 107 100     800.87646250  1.20000000E-04
  1 54 94     759.14760888  3.03750000E-05
  1 83 8     639.58694695  1.20000000E-04
  1 102 21     694.61517722  9.11250000E-04
  1 49 15     665.64981442       0.00160000
  1 108 101     815.77875768  1.20000000E-04
  1 41 11     621.00000000       0.00160000
  1 80 268     743.04106083  1.20000000E-04
  1 45 161     734.82398315  1.20000000E-04
  1 113 36     852.55626348       0.00160000
  1 51 61     740.54402899       0.00116772
  1 84 9     644.37813388  1.20000000E-04
  1 42 241     761.92900462  1.20000000E-04
  1 42 12     619.00000000       0.00160000
  1 94 22     690.80187937  1.20000000E-04
  1 40 51     716.87410725       0.00160000
  1 86 18     709.81074533  1.20000000E-04
  1 43 93     692.47101981  1.20000000E-04
  1 109 267     866.66506884       0.00160000
  1 100 218     817.16001666  3.03750000E-05
  1 104 108     787.45988387  1.20000000E-04
  1 39 244     721.11563758  1.20000000E-04
  1 46 103     704.11029805  1.20000000E-04
  1 64 8     641.84328976  1.20000000E-04
  1 70 51     787.25507978  1.20000000E-04
  1 82 25     707.43296141  1.20000000E-04
  1 44 178     765.97611150  1.20000000E-04
  1 103 84     776.85821291  1.02515625E-04
  1 53 263     769.92746584  6.07500000E-04
  1 47 189     771.73987823  1.20000000E-04
  1 40 64     678.40717317  4.05000000E-04
  1 104 85     770.69218490  1.20000000E-04
  1 36 30     662.92587493       0.00160000
  1 107 90     805.00579892  1.20000000E-04
  1 25 57     641.13592956       0.00160000
  1 112 25     751.54725129       0.00160000
  1 37 260     656.99193928       0.00136687
  1 37 31     670.59960441       0.00160000
  1 48 269     688.17471396       0.00160000
  1 29 27     639.15133260       0.00160000
  1 101 52     799.74177959  6.07500000E-04
  1 86 152     790.37708980  9.00000000E-06
  1 47 81     715.99946675  1.20000000E-04
  1 91 267     750.90020219  1.20000000E-04
  1 113 26     741.74902914       0.00160000
  1 51 51     778.37498876       0.00136687
  1 116 31     797.15233668       0.00160000
  1 41 266     665.07739604       0.00160000
  1 42 231     752.55864509  1.20000000E-04
  1 24 33     674.74051095       0.00160000
  1 104 62     774.06834640  9.11250000E-04
  1 42 87     689.85345565  1.20000000E-04
  1 100 208     810.44401662  3.03750000E-05
  1 87 9     642.58361166  1.20000000E-04
  1 105 143     801.55581152  1.20000000E-04
  1 109 113     817.42794145  1.20000000E-04
  1 55 142     771.86805437  2.02500000E-05
  1 100 64     751.99285432  1.02515625E-04
  1 46 93     707.41129892  1.20000000E-04
  1 57 102     765.37650152  9.00000000E-06
  1 44 132     713.07845330  1.20000000E-04
  1 28 44     679.46811243       0.00160000
  1 113 268     942.40670781       0.00160000
  1 51 64     739.32970529  3.45990234E-04
  1 43 60     710.84112917       0.00160000
  1 56 142     772.33422676  1.35000000E-05
  1 103 74     759.87698100  1.02515625E-04
  1 35 205     653.15477540  1.20000000E-04
  1 47 179     758.15024069  1.20000000E-04
  1 67 8     641.22981627  1.20000000E-04
  1 73 51     788.25054950  1.20000000E-04
  1 47 35     740.49335879       0.00160000
  1 38 66     677.95385630  1.80000000E-04
  1 41 220     733.96791755  1.20000000E-04
  1 27 56     648.31433526       0.00160000
  1 93 267     750.04754915  1.20000000E-04
  1 47 71     718.27682485  1.20000000E-04
  1 39 67     673.01252625  1.20000000E-04
  1 103 51     809.47964759       0.00136687
  1 52 5     632.84223691  9.11250000E-04
  1 103 87     778.78596999  1.02515625E-04
  1 94 267     749.62122262  1.20000000E-04
  1 47 192     773.17777324  1.20000000E-04
  1 108 22     714.62351432       0.00160000
  1 107 57     812.42197220       0.00160000
  1 54 51     784.56442778  4.05000000E-04
  1 33 28     650.51050574       0.00160000
  1 105 133     798.53226815  1.20000000E-04
  1 106 98     808.45961817  1.20000000E-04
  1 44 266     686.02528515       0.00160000
  1 37 263     663.50104595       0.00160000
  1 41 233     734.48352244  1.20000000E-04
  1 28 34     693.66902851       0.00160000
  1 103 64     760.32399316  3.45990234E-04
  1 53 63     735.66751532  2.30660156E-04
  1 32 40     739.32469431       0.00160000
  1 24 36     705.13661226       0.00160000
  1 85 52     790.46873591  1.20000000E-04
  1 42 90     694.34533728  1.20000000E-04
  1 109 116     819.48038375  1.20000000E-04
  1 70 8     641.21529443  1.20000000E-04
  1 44 135     716.70961247  1.20000000E-04
  1 83 63     748.18612863  4.55625000E-05
  1 28 47     675.13353954       0.00160000
  1 40 250     727.59481828  1.20000000E-04
  1 31 52     674.70963613       0.00160000
  1 58 155     777.41065752  9.00000000E-06
  1 59 120     767.53596034  9.00000000E-06
  1 105 87     778.24162442  1.20000000E-04
  1 35 28     653.41459927       0.00160000
  1 23 53     641.06285647       0.00160000
  1 109 93     819.63517706  1.20000000E-04
  1 47 267     690.35844806       0.00160000
  1 39 34     693.57021156       0.00160000
  1 111 22     723.78716926       0.00160000
  1 41 223     733.04702894  1.20000000E-04
  1 103 18     676.69519804       0.00136687
  1 58 132     769.24484285  9.00000000E-06
  1 41 79     684.88050947  1.20000000E-04
  1 115 28     755.50681245       0.00160000
  1 40 263     691.04073208       0.00160000
  1 107 24     734.34667406       0.00160000
  1 118 39     862.70059891       0.00160000
  1 23 30     648.03936393       0.00160000
  1 55 99     765.50568084  2.02500000E-05
  1 100 21     688.99224598  4.05000000E-04
  1 66 28     724.82078555  1.20000000E-04
  1 39 11     615.82058295       0.00160000
  1 99 25     734.85585772  2.70000000E-04
  1 56 63     736.23058107  6.83437500E-05
  1 108 110     811.15676450  1.20000000E-04
  1 27 36     705.26575620       0.00160000
  1 44 125     709.00000000  1.20000000E-04
  1 43 246     763.71067488  1.20000000E-04
  1 92 22     690.65100491  1.20000000E-04
  1 56 99     763.88784178  1.35000000E-05
  1 102 66     754.63001497  1.02515625E-04
  1 84 18     711.37109901  1.20000000E-04
  1 40 240     725.68678992  1.20000000E-04
  1 46 171     749.02848614  1.20000000E-04
  1 53 30     739.33512320  6.07500000E-04
  1 73 8     641.05810157  1.20000000E-04
  1 107 266     830.43696750       0.00160000
  1 86 63     748.93739451  4.55625000E-05
  1 52 70     745.28890079  6.83437500E-05
  1 104 117     791.26297657  1.20000000E-04
  1 61 155     777.92218286  9.00000000E-06
  1 68 51     786.87683064  1.20000000E-04
  1 80 25     709.45169675  1.20000000E-04
  1 44 102     695.32809361  1.20000000E-04
  1 41 213     732.61770077  1.20000000E-04
  1 62 7     639.00183292  1.20000000E-04
  1 58 122     767.79549289  9.00000000E-06
  1 43 259     762.74045062  9.11250000E-04
  1 40 253     727.91476746  1.20000000E-04
  1 26 26     637.06146451       0.00160000
  1 43 115     705.52866680  1.20000000E-04
  1 110 25     757.78854524       0.00160000
  1 75 67     745.38441608  9.00000000E-06
  1 46 269     673.70315424       0.00160000
  1 68 28     725.82874485  1.20000000E-04
  1 38 36     717.22430001       0.00160000
  1 102 20     683.46138418  9.11250000E-04
  1 108 100     816.82180313  1.20000000E-04
  1 45 160     733.23423946  1.20000000E-04
  1 111 25     776.52733439       0.00160000
  1 84 8     640.22725272  1.20000000E-04
  1 103 21     700.82207847       0.00136687
  1 30 37     720.58697240       0.00160000
  1 95 17     700.60068167  1.20000000E-04
  1 42 11     619.86166818       0.00160000
  1 58 135     769.86620000  9.00000000E-06
  1 85 9     643.75666216  1.20000000E-04
  1 43 92     691.88699129  1.20000000E-04
  1 100 217     816.27778942  3.03750000E-05
  1 45 52     746.59137599       0.00160000
  1 87 18     709.59552444  1.20000000E-04
  1 110 267     880.09217461       0.00160000
  1 90 23     696.48912292  1.20000000E-04
  1 104 107     787.86764577  1.20000000E-04
  1 56 30     734.51336606  1.80000000E-04
  1 64 7     639.00672071  1.20000000E-04
  1 48 62     722.40393258  9.11250000E-04
  1 58 112     765.57428916  9.00000000E-06
  1 111 267     894.93346625       0.00160000
  1 44 177     765.20983397  1.20000000E-04
  1 43 249     764.73614112  1.20000000E-04
  1 41 59     693.57485196       0.00160000
  1 40 63     678.70051694  6.07500000E-04
  1 43 105     701.59588712  1.20000000E-04
  1 104 84     769.12723777  1.20000000E-04
  1 57 268     728.73474401  1.20000000E-04
  1 33 60     649.83052967       0.00160000
  1 52 73     749.42936319  6.83437500E-05
  1 104 120     793.03972823  1.20000000E-04
  1 45 150     723.12046819  1.20000000E-04
  1 47 80     715.34284668  1.20000000E-04
  1 57 124     767.98926690  9.00000000E-06
  1 113 25     740.26392680       0.00160000
  1 49 269     691.65362796       0.00160000
  1 116 30     770.91896367       0.00160000
  1 92 267     750.47387567  1.20000000E-04
  1 117 31     783.16125765       0.00160000
  1 42 266     671.21448979       0.00160000
  1 100 207     809.96133777  3.03750000E-05
  1 83 154     788.21629393  9.00000000E-06
  1 98 17     695.03624999  1.80000000E-04
  1 25 33     678.58906565       0.00160000
  1 104 97     788.04258249  1.20000000E-04
  1 110 28     750.94153198       0.00160000
  1 107 102     801.44731947  1.20000000E-04
  1 46 92     707.84254151  1.20000000E-04
  1 48 52     757.24282519       0.00160000
  1 49 17     679.34036263       0.00160000
  1 101 64     752.54133917  1.53773437E-04
  1 51 63     734.10869451  5.18985352E-04
  1 43 59     713.00000000       0.00160000
  1 56 141     771.85614715  1.35000000E-05
  1 43 95     696.02395539  1.20000000E-04
  1 68 8     641.23316170  1.20000000E-04
  1 38 245     701.45943795  1.20000000E-04
  1 44 59     713.26431816       0.00160000
  1 46 105     703.88817937  1.20000000E-04
  1 47 70     719.54275698  1.20000000E-04
  1 51 40     780.04581651       0.00136687
  1 44 180     767.48676313  1.20000000E-04
  1 103 86     778.20929208  1.02515625E-04
  1 104 51     815.81589448       0.00160000
  1 47 191     772.70396375  1.20000000E-04
  1 40 66     678.49969900  1.80000000E-04
  1 52 269     711.65529808  9.11250000E-04
  1 105 132     798.48111897  1.20000000E-04
  1 104 87     773.04810446  1.20000000E-04
  1 107 92     803.63590337  1.20000000E-04
  1 54 86     752.08549951  3.03750000E-05
  1 112 27     779.48379365       0.00160000
  1 50 52     768.41831184       0.00160000
  1 47 83     718.17644604  1.20000000E-04
  1 113 28     770.64359371       0.00160000
  1 42 233     753.49310717  1.20000000E-04
  1 103 63     759.80707684  5.18985352E-04
  1 38 199     713.72443992  1.20000000E-04
  1 24 35     698.32987419       0.00160000
  1 42 89     692.03499133  1.20000000E-04
  1 54 63     735.03434918  1.53773437E-04
  1 105 145     804.06631068  1.20000000E-04
  1 25 36     702.24135719       0.00160000
  1 109 115     818.66873549  1.20000000E-04
  1 55 144     772.34627988  2.02500000E-05
  1 48 19     696.99075681       0.00160000
  1 46 95     706.17387711  1.20000000E-04
  1 71 268     731.59857520  1.20000000E-04
  1 57 104     766.07393098  9.00000000E-06
  1 44 134     716.05857211  1.20000000E-04
  1 81 52     789.48669091  1.20000000E-04
  1 105 266     804.34494652       0.00160000
  1 84 63     748.43655059  4.55625000E-05
  1 103 76     762.45178048  1.02515625E-04
  1 35 207     653.41443817  1.20000000E-04
  1 47 181     760.29437190  1.20000000E-04
  1 86 23     698.75259004  1.20000000E-04
  1 32 52     681.18665371       0.00160000
  1 59 155     777.57947975  9.00000000E-06
  1 39 33     687.05050672       0.00160000
  1 41 222     733.13868128  1.20000000E-04
  1 39 69     674.61620582  1.20000000E-04
  1 31 28     645.06247322       0.00160000
  1 105 14     668.19387820       0.00160000
  1 74 26     711.27233715  1.20000000E-04
  1 40 262     713.99495681       0.00160000
  1 32 29     653.07561333       0.00160000
  1 24 25     635.30651356       0.00160000
  1 107 59     793.66810152       0.00160000
  1 108 24     719.13079674       0.00160000
  1 105 135     798.72015318  1.20000000E-04
  1 106 100     808.94879770  1.20000000E-04
  1 25 26     638.59951891       0.00160000
  1 101 21     691.56000593  6.07500000E-04
  1 27 35     700.02128352       0.00160000
  1 44 124     709.00000000  1.20000000E-04
  1 41 235     735.65723326  1.20000000E-04
  1 62 29     733.28577072  1.20000000E-04
  1 28 36     707.48600185       0.00160000
  1 46 170     747.01638196  1.20000000E-04
  1 31 41     733.42869848       0.00160000
  1 77 157     785.47729735  9.00000000E-06
  1 85 18     710.59092217  1.20000000E-04
  1 74 268     734.11128138  1.20000000E-04
  1 88 23     697.52251771  1.20000000E-04
  1 34 52     683.10991086       0.00160000
  1 54 30     735.21318875  4.05000000E-04
  1 24 38     714.46828989       0.00160000
  1 108 266     843.41411823       0.00160000
  1 108 37     854.56732713       0.00160000
  1 87 63     749.00000000  4.55625000E-05
  1 44 101     693.90620783  1.20000000E-04
  1 55 147     773.06545025  2.02500000E-05
  1 41 212     732.25631643  1.20000000E-04
  1 44 137     716.92836386  1.20000000E-04
  1 63 7     639.00427682  1.20000000E-04
  1 40 252     727.68894051  1.20000000E-04
  1 59 122     767.92901350  9.00000000E-06
  1 105 89     782.24884656  1.20000000E-04
  1 55 268     728.40247243  2.70000000E-04
  1 53 78     750.21119921  4.55625000E-05
  1 35 30     665.95231977       0.00160000
  1 105 125     800.52801886  1.20000000E-04
  1 106 90     782.41957931  1.20000000E-04
  1 38 35     704.69197250       0.00160000
  1 77 26     713.16136595  1.20000000E-04
  1 109 95     819.35055049  1.20000000E-04
  1 47 269     681.97986593       0.00160000
  1 71 68     744.91179135  9.00000000E-06
  1 85 152     789.55331437  9.00000000E-06
  1 111 24     755.00687659       0.00160000
  1 41 225     732.92275045  1.20000000E-04
  1 58 134     769.58326649  9.00000000E-06
  1 64 65     744.33373253  2.02500000E-05
  1 95 52     794.25718514  1.20000000E-04
  1 96 17     698.74587111  1.20000000E-04
  1 41 81     687.55795488  1.20000000E-04
  1 115 30     806.30743695       0.00160000
  1 45 51     747.50116972       0.00160000
  1 65 29     734.46490238  1.20000000E-04
  1 118 41     908.48147867       0.00160000
  1 77 268     736.99693150  1.20000000E-04
  1 48 61     733.39170152       0.00136687
  1 43 248     764.34968589  1.20000000E-04
  1 102 68     756.64641942  6.83437500E-05
  1 40 242     726.59767303  1.20000000E-04
  1 46 173     751.10229287  1.20000000E-04
  1 43 104     701.22572936  1.20000000E-04
  1 109 49     846.35434359       0.00160000
  1 52 72     747.49630350  6.83437500E-05
  1 104 119     792.64868416  1.20000000E-04
  1 47 259     779.59813512  9.11250000E-04
  1 45 149     723.23602600  1.20000000E-04
  1 58 268     728.62667526  1.20000000E-04
  1 44 104     698.34392199  1.20000000E-04
  1 41 71     681.40478183  1.20000000E-04
  1 43 117     706.73584251  1.20000000E-04
  1 104 96     786.79447137  1.20000000E-04
  1 110 27     750.58192072       0.00160000
  1 107 101     800.14733646  1.20000000E-04
  1 98 52     797.64329800  1.80000000E-04
  1 84 154     789.03558394  9.00000000E-06
  1 99 17     692.50249013  2.70000000E-04
  1 108 102     814.64207444  1.20000000E-04
  1 19 24     621.05407298       0.00160000
  1 45 162     736.41372683  1.20000000E-04
  1 103 23     723.20538430       0.00136687
  1 49 52     760.69787694       0.00160000
  1 58 137     770.57890284  9.00000000E-06
  1 43 94     694.21828305  1.20000000E-04
  1 100 219     817.47733163  3.03750000E-05
  1 38 244     700.95843700  1.20000000E-04
  1 52 62     733.00000000  5.18985352E-04
  1 37 199     697.72854562  1.20000000E-04
  1 44 58     715.10411061       0.00160000
  1 104 109     787.05212197  1.20000000E-04
  1 101 220     817.51617216  4.55625000E-05
  1 79 52     788.59214898  1.20000000E-04
  1 48 64     720.36252182  4.05000000E-04
  1 54 144     772.13105884  3.03750000E-05
  1 57 149     774.64049771  9.00000000E-06
  1 58 114     765.66221075  9.00000000E-06
  1 44 179     766.74238902  1.20000000E-04
  1 30 52     673.49160291       0.00160000
  1 61 268     728.13980326  1.20000000E-04
  1 40 65     678.48705590  2.70000000E-04
  1 43 107     702.35776050  1.20000000E-04
  1 104 86     771.87014468  1.20000000E-04
  1 107 91     804.32085115  1.20000000E-04
  1 33 62     647.00000000  9.11250000E-04
  1 52 75     753.45858396  6.83437500E-05
  1 90 267     751.21230008  1.20000000E-04
  1 29 28     643.48313070       0.00160000
  1 102 12     654.85409096  9.11250000E-04
  1 45 152     723.27571453  1.20000000E-04
  1 47 82     717.08795640  1.20000000E-04
  1 57 126     768.28670045  9.00000000E-06
  1 113 27     745.73083818       0.00160000
  1 95 9     644.39249773  1.20000000E-04
  1 117 33     792.01989773       0.00160000
  1 100 209     810.92669547  3.03750000E-05
  1 25 35     697.69630016       0.00160000
  1 104 99     788.23264667  1.20000000E-04
  1 107 104     804.36191694  1.20000000E-04
  1 60 29     734.15150045  1.20000000E-04
  1 46 94     706.79717938  1.20000000E-04
  1 57 103     765.72521625  9.00000000E-06
  1 49 19     687.30793238       0.00160000
  1 75 157     784.45072075  9.00000000E-06
  1 101 66     758.26036844  6.83437500E-05
  1 72 268     732.42134456  1.20000000E-04
  1 58 104     765.93207091  9.00000000E-06
  1 51 65     746.80286713  2.30660156E-04
  1 82 52     789.91666819  1.20000000E-04
  1 106 266     813.35697675       0.00160000
  1 24 47     633.05939786       0.00160000
  1 85 63     748.68697255  4.55625000E-05
  1 87 23     698.03921510  1.20000000E-04
  1 33 52     681.56554188       0.00160000
  1 46 107     703.81600592  1.20000000E-04
  1 47 72     717.27152397  1.20000000E-04
  1 39 68     673.50967223  1.20000000E-04
  1 105 13     666.63242439       0.00160000
  1 102 267     780.94300456  9.11250000E-04
  1 62 51     785.99776671  1.20000000E-04
  1 81 64     747.28696548  3.03750000E-05
  1 40 32     680.50722456       0.00160000
  1 44 182     768.53322616  1.20000000E-04
  1 32 28     648.60055989       0.00160000
  1 103 88     779.36264791  1.02515625E-04
  1 75 26     711.83129460  1.20000000E-04
  1 107 58     801.16054228       0.00160000
  1 40 68     678.60101007  1.20000000E-04
  1 33 29     657.13859967       0.00160000
  1 105 134     798.58551779  1.20000000E-04
  1 107 94     803.22817811  1.20000000E-04
  1 54 88     752.94880344  3.03750000E-05
  1 101 20     682.45143809  6.07500000E-04
  1 41 234     734.85671981  1.20000000E-04
  1 47 85     720.71326818  1.20000000E-04
  1 93 52     792.74222915  1.20000000E-04
  1 43 51     729.91808636       0.00160000
  1 42 235     755.12973068  1.20000000E-04
  1 63 29     733.66679835  1.20000000E-04
  1 32 41     734.68509050       0.00160000
  1 24 37     709.35537687       0.00160000
  1 78 157     786.00855133  9.00000000E-06
  1 75 268     735.06724501  1.20000000E-04
  1 89 23     697.00582031  1.20000000E-04
  1 108 36     856.34565118       0.00160000
  1 105 147     806.62817172  1.20000000E-04
  1 109 117     820.29203201  1.20000000E-04
  1 55 146     772.77593783  2.02500000E-05
  1 48 21     711.88226204       0.00160000
  1 81 18     716.46568342  1.20000000E-04
  1 46 97     705.01050618  1.20000000E-04
  1 44 136     716.81898817  1.20000000E-04