# File generated by Flopy version 3.3.4 on 06/25/2022 at 19:42:23.
BEGIN options
  SAVE_FLOWS
END options

BEGIN dimensions
  MAXBOUND  1470
END dimensions

BEGIN period  1
  1 18 59     653.00000000       0.00240000
  1 64 26     802.78704834       0.00240000
  1 95 13     754.21813965       0.06150938
  1 12 15     641.28485107       0.06400000
  1 43 268     746.00109863       0.00240000
  1 23 173     749.44244385       0.00240000
  1 30 69     745.26989746  3.03750000E-04
  1 96 14     762.78448486       0.06400000
  1 21 249     745.52105713       0.00240000
  1 88 10     687.49737549       0.00360000
  1 35 4     639.00000000       0.00240000
  1 46 13     715.09478760       0.00240000
  1 65 26     802.78704834       0.00240000
  1 92 129     793.95959473  6.83437500E-04
  1 23 29     729.49279785       0.04100625
  1 80 11     703.93878174       0.00240000
  1 16 26     680.69012451       0.06400000
  1 42 164     788.37145996  9.00000000E-05
  1 19 31     674.55718994       0.01822500
  1 23 150     723.38934326       0.00240000
  1 28 265     777.64465332       0.01751576
  1 20 261     723.83563232       0.01215000
  1 21 226     735.00000000       0.00240000
  1 23 6     621.00000000       0.06400000
  1 21 82     681.00000000       0.00240000
  1 26 48     732.13378906       0.00153773
  1 46 26     790.48834229       0.00240000
  1 24 87     713.00000000       0.00240000
  1 69 9     711.00000000       0.00240000
  1 23 163     723.00000000       0.00240000
  1 76 26     805.00000000       0.00240000
  1 21 239     734.58654785       0.00240000
  1 28 98     758.09387207  6.83437500E-04
  1 57 12     707.99249268       0.00240000
  1 98 13     757.80743408       0.06400000
  1 21 95     697.00000000       0.00240000
  1 46 268     762.68981934       0.00240000
  1 24 100     727.42181396       0.00240000
  1 99 14     777.53253174       0.06400000
  1 18 26     713.85809326       0.06400000
  1 36 74     744.15502930  9.00000000E-05
  1 102 19     852.93566895       0.06400000
  1 49 13     715.09478760       0.00240000
  1 41 9     735.00000000       0.00240000
  1 23 140     719.71105957       0.00240000
  1 84 7     659.00000000       0.00240000
  1 22 32     713.00000000       0.01215000
  1 20 251     721.32281494       0.00240000
  1 26 2     627.00000000       0.04100625
  1 29 156     776.20013428  4.55625000E-04
  1 95 101     821.17193604       0.00230660
  1 21 72     685.38116455       0.00240000
  1 24 77     717.24249268       0.00240000
  1 77 232     820.24249268  9.00000000E-05
  1 17 38     649.66870117       0.00240000
  1 96 102     820.79687500       0.00240000
  1 27 2     627.88299561       0.02733750
  1 72 10     684.18554688       0.00240000
  1 18 39     654.08044434       0.00240000
  1 23 117     699.00000000       0.00240000
  1 49 26     790.48834229       0.00240000
  1 19 263     656.82891846       0.02733750
  1 27 87     763.00000000       0.00102516
  1 24 198     773.46734619       0.00240000
  1 91 108     783.56414795  4.55625000E-04
  1 28 88     746.09698486  6.83437500E-04
  1 94 33     792.80285645       0.00518985
  1 95 114     806.81091309       0.00230660
  1 22 130     709.44451904       0.00240000
  1 98 268     957.99249268       0.06400000
  1 79 26     805.00000000       0.00240000
  1 24 90     718.66937256       0.00240000
  1 25 55     735.00000000       0.00230660
  1 17 51     647.00000000       0.00240000
  1 10 12     621.00000000       0.06400000
  1 94 154     811.59503174       0.00153773
  1 93 46     775.65393066       0.00102516
  1 52 157     790.44134521  9.00000000E-05
  1 49 268     762.68981934       0.00240000
  1 30 26     785.00000000       0.00810000
  1 22 251     764.57299805       0.00240000
  1 20 61     673.00000000       0.00240000
  1 94 10     704.01586914       0.04100625
  1 31 70     743.00000000  2.02500000E-04
  1 11 12     621.76855469       0.06400000
  1 29 146     770.56835938  4.55625000E-04
  1 87 7     659.00000000       0.00240000
  1 14 23     670.01354980       0.06400000
  1 24 67     735.00000000       0.00240000
  1 90 12     728.86151123       0.00810000
  1 60 26     801.51202393       0.00240000
  1 58 65     749.00000000  9.00000000E-05
  1 23 107     716.77575684       0.00240000
  1 27 77     747.82153320       0.00102516
  1 24 188     757.87695312       0.00240000
  1 59 66     749.00000000  9.00000000E-05
  1 30 268     727.53106689       0.00810000
  1 91 98     776.34716797  4.55625000E-04
  1 22 264     757.01428223       0.04100625
  1 29 123     767.14337158  4.55625000E-04
  1 75 10     684.18554688       0.00240000
  1 20 74     672.88708496       0.00240000
  1 67 6     647.70526123       0.00240000
  1 93 144     799.00000000       0.00102516
  1 52 26     792.94000244       0.00240000
  1 25 9     673.00000000       0.06150938
  1 29 159     776.20013428  4.55625000E-04
  1 22 120     705.00000000       0.00240000
  1 46 68     746.58666992  9.00000000E-05
  1 71 12     705.95996094       0.00240000
  1 17 41     649.25384521       0.00240000
  1 29 15     735.18756104       0.01215000
  1 82 26     805.99981689       0.00240000
  1 55 9     701.00000000       0.00240000
  1 21 16     676.40362549       0.06400000
  1 91 111     783.00000000  4.55625000E-04
  1 29 136     768.91644287  4.55625000E-04
  1 76 68     751.00000000  9.00000000E-05
  1 22 97     694.14532471       0.00240000
  1 97 11     728.97320557       0.06400000
  1 33 26     785.15368652       0.00240000
  1 24 57     735.00000000       0.00240000
  1 22 133     710.61193848       0.00240000
  1 56 9     701.00000000       0.00240000
  1 19 207     694.90783691       0.00240000
  1 77 68     751.00000000  9.00000000E-05
  1 90 87     761.07141113  3.03750000E-04
  1 24 178     753.53149414       0.00240000
  1 92 53     772.08843994  6.83437500E-04
  1 22 254     764.56958008       0.00240000
  1 29 113     766.49407959  4.55625000E-04
  1 63 26     802.78704834       0.00240000
  1 75 229     817.88922119  9.00000000E-05
  1 20 64     673.01904297       0.00240000
  1 93 134     800.81848145       0.00102516
  1 86 9     674.14398193       0.00240000
  1 22 110     698.57128906       0.00240000
  1 28 153     772.61383057  6.83437500E-04
  1 33 268     734.32373047       0.00240000
  1 94 98     785.88201904       0.00153773
  1 78 10     681.00000000       0.00240000
  1 70 6     647.70526123       0.00240000
  1 93 26     823.84875488       0.02733750
  1 50 64     746.58666992  9.00000000E-05
  1 62 267     769.48840332       0.00240000
  1 21 6     621.00000000       0.06400000
  1 29 126     767.14337158  4.55625000E-04
  1 93 147     799.00000000       0.00102516
  1 26 57     730.93890381       0.00153773
  1 45 70     744.51959229  9.00000000E-05
  1 66 13     736.82940674       0.00240000
  1 58 9     701.00000000       0.00240000
  1 79 68     751.00000000  9.00000000E-05
  1 19 53     662.75854492       0.00240000
  1 20 18     711.09191895       0.06400000
  1 12 14     639.66204834       0.06400000
  1 23 172     738.26892090       0.00240000
  1 30 68     739.23828125  3.03750000E-04
  1 55 12     707.99249268       0.00240000
  1 96 13     743.38311768       0.06400000
  1 21 248     745.52105713       0.00240000
  1 88 9     673.61767578       0.00360000
  1 5 11     613.66076660       0.06400000
  1 76 71     753.71850586  9.00000000E-05
  1 22 100     691.00000000       0.00240000
  1 97 14     780.93902588       0.06400000
  1 68 216     811.00000000  9.00000000E-05
  1 34 74     744.15502930  9.00000000E-05
  1 26 70     747.31176758       0.00153773
  1 100 19     843.93457031       0.06400000
  1 47 13     715.09478760       0.00240000
  1 18 215     653.71545410       0.00240000
  1 66 26     802.78704834       0.00240000
  1 42 163     784.12213135  9.00000000E-05
  1 31 4     639.00000000       0.00540000
  1 90 90     764.86785889  3.03750000E-04
  1 91 55     767.56152344  4.55625000E-04
  1 95 25     838.64294434       0.06150938
  1 20 260     723.37463379       0.00810000
  1 20 31     683.96893311       0.01822500
  1 12 27     639.00000000       0.06400000
  1 38 165     785.08117676  9.00000000E-05
  1 73 6     648.90423584       0.00240000
  1 23 185     763.31481934       0.00240000
  1 53 64     749.00000000  9.00000000E-05
  1 26 47     735.02819824       0.00153773
  1 24 266     707.45861816       0.06400000
  1 94 101     785.88201904       0.00153773
  1 31 161     779.00000000  2.02500000E-04
  1 87 62     754.22558594  9.00000000E-05
  1 47 26     790.48834229       0.00240000
  1 70 9     711.00000000       0.00240000
  1 62 5     645.99749756       0.00240000
  1 23 162     723.00000000       0.00240000
  1 95 267     840.21539307       0.06150938
  1 21 238     733.42443848       0.00240000
  1 57 11     686.77923584       0.00240000
  1 15 14     641.07794189       0.06400000
  1 21 94     697.00000000       0.00240000
  1 26 60     735.11956787       0.00153773
  1 24 99     727.42181396       0.00240000
  1 58 12     707.99249268       0.00240000
  1 47 268     762.68981934       0.00240000
  1 37 74     744.15502930  9.00000000E-05
  1 23 139     719.71105957       0.00240000
  1 9 12     620.23669434       0.06400000
  1 95 15     810.95880127       0.06150938
  1 42 9     728.65063477       0.00240000
  1 12 17     685.00317383       0.06400000
  1 23 175     749.44244385       0.00240000
  1 85 7     659.00000000       0.00240000
  1 76 267     770.30963135       0.00240000
  1 96 16     794.94061279       0.06400000
  1 21 251     745.52105713       0.00240000
  1 77 231     820.24249268  9.00000000E-05
  1 15 27     660.46624756       0.06400000
  1 96 101     820.93609619       0.00240000
  1 77 267     770.30963135       0.00240000
  1 90 57     763.21893311  3.03750000E-04
  1 56 64     749.00000000  9.00000000E-05
  1 27 266     747.25592041       0.02733750
  1 23 152     724.36560059       0.00240000
  1 20 263     716.40716553       0.02733750
  1 21 228     732.99615479       0.00240000
  1 28 87     746.09698486  6.83437500E-04
  1 94 32     802.06964111       0.00778478
  1 65 5     645.24560547       0.00240000
  1 95 113     805.53228760       0.00230660
  1 21 84     681.00000000       0.00240000
  1 86 64     755.90301514  9.00000000E-05
  1 24 89     718.66937256       0.00240000
  1 25 54     735.00000000       0.00230660
  1 80 26     805.99981689       0.00240000
  1 49 267     767.90661621       0.00240000
  1 61 12     715.78247070       0.00240000
  1 45 4     639.65594482       0.00240000
  1 91 120     786.82312012  4.55625000E-04
  1 28 100     758.09387207  6.83437500E-04
  1 54 9     711.31494141       0.00240000
  1 40 74     745.11083984  9.00000000E-05
  1 92 121     787.00000000  6.83437500E-04
  1 24 66     735.00000000       0.00240000
  1 98 15     804.28790283       0.06400000
  1 90 11     705.04443359       0.00810000
  1 15 17     693.33563232       0.06400000
  1 79 267     770.30963135       0.00240000
  1 99 16     810.88049316       0.06400000
  1 91 12     728.12402344       0.01215000
  1 83 8     667.00000000       0.00240000
  1 23 106     716.77575684       0.00240000
  1 19 252     655.00000000       0.00240000
  1 24 187     757.87695312       0.00240000
  1 59 65     749.00000000  9.00000000E-05
  1 23 142     719.71105957       0.00240000
  1 84 9     674.14398193       0.00240000
  1 22 34     711.00000000       0.00540000
  1 20 73     672.88708496       0.00240000
  1 73 228     817.88922119  9.00000000E-05
  1 29 158     776.20013428  4.55625000E-04
  1 21 74     682.30224609       0.00240000
  1 68 6     647.70526123       0.00240000
  1 24 79     717.24249268       0.00240000
  1 71 11     699.32916260       0.00240000
  1 17 40     649.25384521       0.00240000
  1 96 104     820.79687500       0.00240000
  1 60 267     769.48840332       0.00240000
  1 47 68     746.58666992  9.00000000E-05
  1 72 12     705.95996094       0.00240000
  1 18 41     654.08044434       0.00240000
  1 23 119     703.58880615       0.00240000
  1 30 15     733.00000000       0.00810000
  1 91 110     783.00000000  4.55625000E-04
  1 61 267     769.48840332       0.00240000
  1 28 90     749.39666748  6.83437500E-04
  1 94 35     782.65307617       0.00230660
  1 26 17     752.87170410       0.04100625
  1 24 56     735.00000000       0.00240000
  1 95 116     806.81091309       0.00230660
  1 22 132     710.61193848       0.00240000
  1 48 4     643.72894287       0.00240000
  1 19 206     694.90783691       0.00240000
  1 17 53     647.00000000       0.00240000
  1 94 156     808.23706055       0.00153773
  1 93 48     778.12054443       0.00102516
  1 91 267     791.75286865       0.01215000
  1 78 68     751.00000000  9.00000000E-05
  1 22 253     764.56958008       0.00240000
  1 20 63     673.00000000       0.00240000
  1 31 72     743.00000000  2.02500000E-04
  1 11 14     631.90557861       0.06400000
  1 29 148     773.00000000  4.55625000E-04
  1 48 161     787.65557861  9.00000000E-05
  1 22 109     693.42962646       0.00240000
  1 87 9     674.14398193       0.00240000
  1 24 69     727.97131348       0.00240000
  1 98 18     841.51574707       0.06400000
  1 29 4     639.02770996       0.01215000
  1 93 25     819.67291260       0.02733750
  1 18 31     659.00000000       0.01822500
  1 23 109     716.77575684       0.00240000
  1 27 79     747.82153320       0.00102516
  1 24 190     764.55523682       0.00240000
  1 51 64     749.00000000  9.00000000E-05
  1 91 100     776.34716797  4.55625000E-04
  1 22 266     690.69641113       0.06400000
  1 63 267     770.03277588       0.00240000
  1 29 125     767.14337158  4.55625000E-04
  1 20 76     672.88708496       0.00240000
  1 94 25     825.81677246       0.04100625
  1 93 146     799.00000000       0.00102516
  1 25 11     705.00000000       0.06150938
  1 95 106     811.35284424       0.00230660
  1 22 122     705.00000000       0.00240000
  1 60 5     645.99749756       0.00240000
  1 17 43     649.25384521       0.00240000
  1 93 267     812.08929443       0.02733750
  1 19 52     662.75854492       0.00240000
  1 93 38     776.41851807       0.00102516
  1 80 68     751.37164307  9.00000000E-05
  1 13 14     641.14447021       0.06400000
  1 91 113     783.00000000  4.55625000E-04
  1 52 5     648.57409668       0.00240000
  1 29 138     768.91644287  4.55625000E-04
  1 22 99     691.00000000       0.00240000
  1 97 13     765.63104248       0.06400000
  1 94 267     814.85864258       0.04100625
  1 68 215     811.00000000  9.00000000E-05
  1 34 73     744.15502930  9.00000000E-05
  1 26 69     747.31176758       0.00153773
  1 100 18     822.81976318       0.06400000
  1 35 74     744.15502930  9.00000000E-05
  1 19 209     694.90783691       0.00240000
  1 101 19     848.53717041       0.06400000
  1 93 15     810.38269043       0.02733750
  1 90 89     764.86785889  3.03750000E-04
  1 24 180     753.53149414       0.00240000
  1 32 4     639.00000000       0.00360000
  1 91 90     768.63946533  4.55625000E-04
  1 23 184     758.16387939       0.00240000
  1 29 115     765.68511963  4.55625000E-04
  1 96 25     847.81207275       0.06400000
  1 61 67     749.00000000  9.00000000E-05
  1 93 136     798.09783936       0.00102516
  1 13 27     640.25158691       0.06400000
  1 39 165     785.08117676  9.00000000E-05
  1 24 265     739.69244385       0.06150938
  1 25 1     621.96197510       0.06150938
  1 22 112     698.57128906       0.00240000
  1 54 64     749.00000000  9.00000000E-05
  1 94 100     785.88201904       0.00153773
  1 25 266     713.73455811       0.06150938
  1 70 8     684.89038086       0.00240000
  1 32 161     779.00000000  1.35000000E-04
  1 63 5     645.24560547       0.00240000
  1 29 128     767.65179443  4.55625000E-04
  1 93 149     801.00000000       0.00102516
  1 26 59     730.93890381       0.00153773
  1 58 11     686.77923584       0.00240000
  1 97 268     933.34600830       0.06400000
  1 59 12     715.78247070       0.00240000
  1 43 4     639.65594482       0.00240000
  1 27 59     733.00000000       0.00102516
  1 19 55     662.75854492       0.00240000
  1 12 16     653.36639404       0.06400000
  1 23 174     749.44244385       0.00240000
  1 29 105     761.00000000  4.55625000E-04
  1 30 70     745.26989746  3.03750000E-04
  1 96 15     784.26916504       0.06400000
  1 21 250     745.52105713       0.00240000
  1 88 11     697.28308105       0.00360000
  1 13 17     685.33776855       0.06400000
  1 23 30     720.01055908       0.02733750
  1 97 16     782.97991943       0.06400000
  1 68 218     811.00000000  9.00000000E-05
  1 100 21     917.53503418       0.06400000
  1 90 56     763.21893311  3.03750000E-04
  1 81 7     663.20831299       0.00240000
  1 19 32     672.27746582       0.01215000
  1 78 267     770.30963135       0.00240000
  1 90 92     764.86785889  3.03750000E-04
  1 23 151     723.38934326       0.00240000
  1 20 262     714.76110840       0.01822500
  1 21 227     732.99615479       0.00240000
  1 73 8     678.13940430       0.00240000
  1 23 187     763.31481934       0.00240000
  1 21 263     752.48571777       0.02733750
  1 26 49     732.13378906       0.00153773
  1 24 268     685.37286377       0.06400000
  1 86 63     754.22558594  9.00000000E-05
  1 66 5     645.24560547       0.00240000
  1 61 11     685.00000000       0.00240000
  1 83 66     751.37164307  9.00000000E-05
  1 23 164     731.51184082       0.00240000
  1 21 240     734.58654785       0.00240000
  1 26 26     771.73052979       0.04100625
  1 46 4     643.72894287       0.00240000
  1 15 16     680.01208496       0.06400000
  1 26 62     735.11956787       0.00153773
  1 24 101     727.42181396       0.00240000
  1 99 15     776.96826172       0.06400000
  1 16 17     711.43115234       0.06400000
  1 102 20     869.36901855       0.06400000
  1 27 26     778.26409912       0.02733750
  1 80 267     772.99560547       0.00240000
  1 23 141     719.71105957       0.00240000
  1 84 8     666.68023682       0.00240000
  1 22 33     711.00000000       0.00810000
  1 20 252     721.87835693       0.00240000
  1 93 93     773.39947510       0.00102516
  1 85 9     674.14398193       0.00240000
  1 21 73     682.30224609       0.00240000
  1 24 78     717.24249268       0.00240000
  1 57 26     798.47546387       0.00240000
  1 77 233     820.24249268  9.00000000E-05
  1 96 103     820.79687500       0.00240000
  1 27 3     633.00000000       0.02733750
  1 18 40     654.08044434       0.00240000
  1 27 268     709.15856934       0.02733750
  1 34 164     782.31878662  9.00000000E-05
  1 19 264     659.90820312       0.04100625
  1 23 154     724.36560059       0.00240000
  1 21 230     732.99615479       0.00240000
  1 28 89     749.39666748  6.83437500E-04
  1 94 34     781.00000000       0.00345990
  1 95 115     806.81091309       0.00230660
  1 21 86     686.43737793       0.00240000
  1 24 91     718.66937256       0.00240000
  1 17 52     647.00000000       0.00240000
  1 96 116     818.28894043       0.00240000
  1 29 26     785.00000000       0.01215000
  1 49 4     643.72894287       0.00240000
  1 94 155     811.59503174       0.00153773
  1 93 47     775.65393066       0.00102516
  1 18 53     653.00000000       0.00240000
  1 92 267     796.01519775       0.01822500
  1 11 13     625.38842773       0.06400000
  1 28 102     766.14025879  6.83437500E-04
  1 74 69     756.21350098  9.00000000E-05
  1 32 72     743.00000000  1.35000000E-04
  1 92 123     791.77490234  6.83437500E-04
  1 24 68     735.00000000       0.00240000
  1 4 10     614.79974365       0.06400000
  1 49 161     787.65557861  9.00000000E-05
  1 96 93     822.45935059       0.00240000
  1 38 268     737.59405518       0.00240000
  1 33 73     745.46820068  9.00000000E-05
  1 18 30     669.90289307       0.02733750
  1 83 10     681.00000000       0.00240000
  1 23 108     716.77575684       0.00240000
  1 30 4     639.00000000       0.00810000
  1 19 254     655.00000000       0.00240000
  1 41 13     711.06988525       0.00240000
  1 24 189     764.55523682       0.00240000
  1 23 144     722.11523438       0.00240000
  1 22 265     727.46112061       0.06150938
  1 20 75     672.88708496       0.00240000
  1 29 160     777.31182861  4.55625000E-04
  1 95 105     819.10418701       0.00230660
  1 22 121     705.00000000       0.00240000
  1 21 76     682.30224609       0.00240000
  1 24 81     717.00000000       0.00240000
  1 17 42     649.25384521       0.00240000
  1 30 161     778.02197266  3.03750000E-04
  1 90 26     812.41552734       0.00810000
  1 18 43     654.08044434       0.00240000
  1 41 26     787.22412109       0.00240000
  1 91 112     783.00000000  4.55625000E-04
  1 29 137     768.91644287  4.55625000E-04
  1 28 92     749.39666748  6.83437500E-04
  1 94 37     782.65307617       0.00153773
  1 14 14     641.92669678       0.06400000
  1 24 58     735.00000000       0.00240000
  1 22 134     710.61193848       0.00240000
  1 88 79     756.86975098  1.35000000E-04
  1 19 208     694.90783691       0.00240000
  1 101 18     827.22595215       0.06400000
  1 71 26     804.54937744       0.00240000
  1 17 55     647.00000000       0.00240000
  1 24 179     753.53149414       0.00240000
  1 91 89     768.63946533  4.55625000E-04
  1 22 255     764.56958008       0.00240000
  1 41 268     737.59405518       0.00240000
  1 20 65     673.01904297       0.00240000
  1 94 14     766.44116211       0.04100625
  1 86 10     682.28015137       0.00240000
  1 33 4     639.00000000       0.00240000
  1 92 90     770.50885010  6.83437500E-04
  1 44 13     708.87530518       0.00240000
  1 22 111     698.57128906       0.00240000
  1 97 25     859.06884766       0.06400000
  1 14 27     653.00000000       0.06400000
  1 79 7     670.08001709       0.00240000
  1 40 164     785.08117676  9.00000000E-05
  1 50 65     746.58666992  9.00000000E-05
  1 23 111     708.20739746       0.00240000
  1 43 26     788.25933838       0.00240000
  1 27 81     756.52355957       0.00102516
  1 24 192     764.55523682       0.00240000
  1 91 102     784.17462158  4.55625000E-04
  1 29 127     767.65179443  4.55625000E-04
  1 93 148     801.00000000       0.00102516
  1 85 64     755.90301514  9.00000000E-05
  1 44 26     788.25933838       0.00240000
  1 22 124     707.86096191       0.00240000
  1 59 11     685.00000000       0.00240000
  1 27 58     733.00000000       0.00102516
  1 19 54     662.75854492       0.00240000
  1 93 40     773.82342529       0.00102516
  1 22 245     765.84295654       0.00240000
  1 29 104     761.00000000  4.55625000E-04
  1 74 26     804.54937744       0.00240000
  1 13 16     654.18878174       0.06400000
  1 29 140     769.48278809  4.55625000E-04
  1 76 72     753.71850586  9.00000000E-05
  1 22 101     691.00000000       0.00240000
  1 97 15     791.98510742       0.06400000
  1 68 217     811.00000000  9.00000000E-05
  1 89 11     697.28308105       0.00540000
  1 26 71     747.31176758       0.00153773
  1 14 17     690.86657715       0.06400000
  1 100 20     864.20074463       0.06400000
  1 44 268     746.00109863       0.00240000
  1 25 26     763.47912598       0.06150938
  1 90 91     764.86785889  3.03750000E-04
  1 91 56     770.83203125  4.55625000E-04
  1 82 7     663.20831299       0.00240000
  1 27 71     739.21478271       0.00102516
  1 20 32     681.31799316       0.01215000
  1 23 186     763.31481934       0.00240000
  1 29 117     765.68511963  4.55625000E-04
  1 55 26     798.47546387       0.00240000
  1 21 262     750.26263428       0.01822500
  1 21 33     691.00000000       0.00810000
  1 93 138     798.09783936       0.00102516
  1 13 29     641.52117920       0.04100625
  1 24 267     691.74401855       0.06400000
  1 22 114     702.05847168       0.00240000
  1 94 102     809.00000000       0.00153773
  1 25 268     693.92126465       0.06150938
  1 87 63     754.22558594  9.00000000E-05
  1 84 66     755.90301514  9.00000000E-05
  1 26 61     735.11956787       0.00153773
  1 47 4     643.72894287       0.00240000
  1 77 26     805.00000000       0.00240000
  1 50 9     719.64141846       0.00240000
  1 93 7     667.07781982       0.02733750
  1 71 68     750.23748779  9.00000000E-05
  1 28 26     781.49554443       0.01822500
  1 19 57     664.75683594       0.00240000
  1 23 176     749.44244385       0.00240000
  1 29 107     764.93475342  4.55625000E-04
  1 85 8     666.68023682       0.00240000
  1 96 17     799.01818848       0.06400000
  1 21 252     748.87878418       0.00240000
  1 68 220     812.30126953  9.00000000E-05
  1 15 28     656.74182129       0.06150938
  1 71 225     817.00000000  9.00000000E-05
  1 39 13     711.06988525       0.00240000
  1 58 26     798.47546387       0.00240000
  1 90 58     763.21893311  3.03750000E-04
  1 34 163     781.56628418  9.00000000E-05
  1 28 3     633.90234375       0.01822500
  1 19 34     665.77752686       0.00540000
  1 23 153     724.36560059       0.00240000
  1 28 268     711.00000000       0.01822500
  1 35 164     782.31878662  9.00000000E-05
  1 95 29     821.24194336       0.03941045
  1 20 264     706.36376953       0.04100625
  1 21 229     732.99615479       0.00240000
  1 73 10     684.18554688       0.00240000
  1 23 189     766.33551025       0.00240000
  1 88 26     810.84924316       0.00360000
  1 21 85     686.43737793       0.00240000
  1 26 51     732.13378906       0.00153773
  1 57 267     768.94415283       0.00240000
  1 69 12     709.62664795       0.00240000
  1 54 154     789.75311279  9.00000000E-05
  1 53 9     711.31494141       0.00240000
  1 23 166     731.51184082       0.00240000
  1 21 242     734.58654785       0.00240000
  1 28 101     758.09387207  6.83437500E-04
  1 74 68     750.23748779  9.00000000E-05
  1 92 122     787.00000000  6.83437500E-04
  1 49 160     787.65557861  9.00000000E-05
  1 15 18     701.00000000       0.06400000
  1 86 78     759.45117188  9.00000000E-05
  1 18 209     653.20086670       0.00240000
  1 50 12     699.30224609       0.00240000
  1 16 19     734.52148438       0.06400000
  1 19 253     655.00000000       0.00240000
  1 39 268     737.59405518       0.00240000
  1 23 143     719.71105957       0.00240000
  1 84 10     682.28015137       0.00240000
  1 76 6     651.82196045       0.00240000
  1 95 19     869.89453125       0.06150938
  1 21 219     732.67095947       0.00240000
  1 42 13     708.87530518       0.00240000
  1 61 26     801.51202393       0.00240000
  1 93 95     780.98413086       0.00102516
  1 21 75     682.30224609       0.00240000
  1 24 80     717.24249268       0.00240000
  1 96 105     820.79687500       0.00240000
  1 18 42     654.08044434       0.00240000
  1 91 26     817.32830811       0.01215000
  1 64 9     707.73052979       0.00240000
  1 23 120     703.58880615       0.00240000
  1 23 156     723.00000000       0.00240000
  1 43 71     744.51959229  9.00000000E-05
  1 21 232     732.76666260       0.00240000
  1 42 26     788.25933838       0.00240000
  1 28 91     749.39666748  6.83437500E-04
  1 94 36     782.65307617       0.00153773
  1 26 18     744.43176270       0.04100625
  1 65 9     707.73052979       0.00240000
  1 57 5     648.66381836       0.00240000
  1 95 117     806.81091309       0.00230660
  1 21 88     686.43737793       0.00240000
  1 24 93     718.66937256       0.00240000
  1 90 267     784.42749023       0.00810000
  1 44 71     744.51959229  9.00000000E-05
  1 17 54     647.00000000       0.00240000
  1 96 118     818.28894043       0.00240000
  1 53 156     790.44134521  9.00000000E-05
  1 93 49     778.12054443       0.00102516
  1 72 26     804.54937744       0.00240000
  1 18 55     653.00000000       0.00240000
  1 29 64     738.42645264  4.55625000E-04
  1 53 12     698.41064453       0.00240000
  1 94 13     758.34399414       0.04100625
  1 29 149     773.00000000  4.55625000E-04
  1 42 268     746.00109863       0.00240000
  1 48 162     787.65557861  9.00000000E-05
  1 28 104     766.14025879  6.83437500E-04
  1 87 10     682.28015137       0.00240000
  1 92 125     791.77490234  6.83437500E-04
  1 24 70     727.97131348       0.00240000
  1 98 19     890.22100830       0.06400000
  1 96 95     821.75915527       0.00240000
  1 71 267     771.45013428       0.00240000
  1 80 7     663.20831299       0.00240000
  1 18 32     659.00000000       0.01215000
  1 23 110     708.20739746       0.00240000
  1 27 80     747.82153320       0.00102516
  1 24 191     764.55523682       0.00240000
  1 91 101     776.34716797  4.55625000E-04
  1 36 165     782.31878662  9.00000000E-05
  1 22 267     678.96069336       0.06400000
  1 20 77     677.42443848       0.00240000
  1 67 9     711.00000000       0.00240000
  1 95 107     811.35284424       0.00230660
  1 22 123     707.86096191       0.00240000
  1 21 78     681.00000000       0.00240000
  1 24 83     717.00000000       0.00240000
  1 17 44     647.92608643       0.00240000
  1 93 39     773.82342529       0.00102516
  1 64 12     715.02166748       0.00240000
  1 91 114     783.00000000  4.55625000E-04
  1 29 139     769.48278809  4.55625000E-04
  1 75 26     804.54937744       0.00240000
  1 14 16     666.36682129       0.06400000
  1 24 60     735.00000000       0.00240000
  1 69 211     809.00000000  9.00000000E-05
  1 22 136     711.60412598       0.00240000
  1 56 12     707.99249268       0.00240000
  1 69 67     749.00561523  9.00000000E-05
  1 49 9     719.64141846       0.00240000
  1 24 181     754.46679688       0.00240000
  1 22 257     766.76617432       0.00240000
  1 29 116     765.68511963  4.55625000E-04
  1 74 267     771.45013428       0.00240000
  1 20 67     673.01904297       0.00240000
  1 21 32     692.29986572       0.01215000
  1 93 137     798.09783936       0.00102516
  1 13 28     640.54565430       0.06150938
  1 92 92     770.50885010  6.83437500E-04
  1 22 113     698.57128906       0.00240000