# File generated by Flopy version 3.3.2 on 08/25/2021 at 12:41:56.
BEGIN options
  COMPLEXITY  complex
END options

