# File generated by Flopy version 3.3.2 on 08/10/2021 at 12:26:43.
BEGIN options
  COMPLEXITY  complex
END options

