# File generated by Flopy version 3.3.4 on 10/15/2021 at 16:06:57.
BEGIN options
  COMPLEXITY  complex
END options

