# File generated by Flopy version 3.3.4 on 11/17/2021 at 14:02:47.
BEGIN options
  PRINT_INPUT
  PRINT_FLOWS
  SAVE_FLOWS
END options

BEGIN dimensions
  MAXBOUND  9
END dimensions

BEGIN period  1102
  1 15 16     748.00000000  9.26064570E-05
END period  1102

BEGIN period  1139
  1 15 16     748.00000000  9.26064570E-05
  2 15 17     748.12344152  6.04924177E-04
END period  1139

BEGIN period  1175
  1 15 16     748.00000000  9.26064570E-05
  2 15 17     748.12344152  6.04924177E-04
  3 15 18     748.92978657  6.04924177E-04
END period  1175

BEGIN period  1212
  1 15 16     748.00000000  9.26064570E-05
  2 15 17     748.12344152  6.04924177E-04
  3 15 18     748.92978657  6.04924177E-04
  3 15 19     749.73613163  6.04924177E-04
END period  1212

BEGIN period  1230
  1 15 16     748.00000000  9.26064570E-05
  2 15 17     748.12344152  6.04924177E-04
  3 15 18     748.92978657  6.04924177E-04
  3 15 19     749.73613163  6.04924177E-04
  3 15 20     750.54247669  2.89073012E-04
END period  1230

BEGIN period  1249
  1 15 16     748.00000000  9.26064570E-05
  2 15 17     748.12344152  6.04924177E-04
  3 15 18     748.92978657  6.04924177E-04
  3 15 19     749.73613163  6.04924177E-04
  3 15 20     750.54247669  2.89073012E-04
  3 14 20     750.92780200  3.15851165E-04
END period  1249

BEGIN period  1285
  1 15 16     748.00000000  9.26064570E-05
  2 15 17     748.12344152  6.04924177E-04
  3 15 18     748.92978657  6.04924177E-04
  3 15 19     749.73613163  6.04924177E-04
  3 15 20     750.54247669  2.89073012E-04
  3 14 20     750.92780200  3.15851165E-04
  3 14 21     751.34882174  6.04924177E-04
END period  1285

BEGIN period  1322
  1 15 16     748.00000000  9.26064570E-05
  2 15 17     748.12344152  6.04924177E-04
  3 15 18     748.92978657  6.04924177E-04
  3 15 19     749.73613163  6.04924177E-04
  3 15 20     750.54247669  2.89073012E-04
  3 14 20     750.92780200  3.15851165E-04
  3 14 21     751.34882174  6.04924177E-04
  4 14 22     752.15516680  6.04924177E-04
END period  1322

BEGIN period  1335
  1 15 16     748.00000000  9.26064570E-05
  2 15 17     748.12344152  6.04924177E-04
  3 15 18     748.92978657  6.04924177E-04
  3 15 19     749.73613163  6.04924177E-04
  3 15 20     750.54247669  2.89073012E-04
  3 14 20     750.92780200  3.15851165E-04
  3 14 21     751.34882174  6.04924177E-04
  4 14 22     752.15516680  6.04924177E-04
  4 14 23     752.96151186  2.16425277E-04
END period  1335

