# File generated by Flopy version 3.3.2 on 08/11/2021 at 07:56:08.
BEGIN options
  COMPLEXITY  complex
END options

