# File generated by Flopy version 3.3.4 on 11/27/2021 at 21:53:52.
BEGIN options
  BOUNDNAMES
  PRINT_INPUT
  PRINT_FLOWS
  SAVE_FLOWS
  OBS6  FILEIN  modelo_Norte_gal_w.drn.obs
END options

BEGIN dimensions
  MAXBOUND  13
END dimensions

BEGIN period  1225
  1 15 17     759.19438811  7.50205104E-06  gal_w_flow
END period  1225

BEGIN period  1236
  1 15 17     759.19438811  7.50205104E-06  gal_w_flow
  1 15 18     781.00422038  7.50205104E-06  gal_w_flow
END period  1236

BEGIN period  1250
  1 15 17     759.19438811  7.50205104E-06  gal_w_flow
  1 15 18     781.00422038  7.50205104E-06  gal_w_flow
  1 15 19     775.90000604  7.50205104E-06  gal_w_flow
END period  1250

BEGIN period  1265
  1 15 17     759.19438811  7.50205104E-06  gal_w_flow
  1 15 18     781.00422038  7.50205104E-06  gal_w_flow
  1 15 19     775.90000604  7.50205104E-06  gal_w_flow
  1 14 20     775.37648861  7.50205104E-06  gal_w_flow
  2 14 20     751.69215587  7.50205104E-06  gal_w_flow
END period  1265

BEGIN period  1282
  1 15 17     759.19438811  7.50205104E-06  gal_w_flow
  1 15 18     781.00422038  7.50205104E-06  gal_w_flow
  1 15 19     775.90000604  7.50205104E-06  gal_w_flow
  1 14 20     775.37648861  7.50205104E-06  gal_w_flow
  2 14 20     751.69215587  7.50205104E-06  gal_w_flow
  1 14 21     786.58872883  7.50205104E-06  gal_w_flow
  2 14 21     761.07551526  7.50205104E-06  gal_w_flow
END period  1282

BEGIN period  1300
  1 15 17     759.19438811  7.50205104E-06  gal_w_flow
  1 15 18     781.00422038  7.50205104E-06  gal_w_flow
  1 15 19     775.90000604  7.50205104E-06  gal_w_flow
  1 14 20     775.37648861  7.50205104E-06  gal_w_flow
  2 14 20     751.69215587  7.50205104E-06  gal_w_flow
  1 14 21     786.58872883  7.50205104E-06  gal_w_flow
  2 14 21     761.07551526  7.50205104E-06  gal_w_flow
  1 14 22     796.83750011  7.50205104E-06  gal_w_flow
  2 14 22     787.76864418  7.50205104E-06  gal_w_flow
  3 14 22     778.69978825  7.50205104E-06  gal_w_flow
END period  1300

BEGIN period  1320
  1 15 17     759.19438811  7.50205104E-06  gal_w_flow
  1 15 18     781.00422038  7.50205104E-06  gal_w_flow
  1 15 19     775.90000604  7.50205104E-06  gal_w_flow
  1 14 20     775.37648861  7.50205104E-06  gal_w_flow
  2 14 20     751.69215587  7.50205104E-06  gal_w_flow
  1 14 21     786.58872883  7.50205104E-06  gal_w_flow
  2 14 21     761.07551526  7.50205104E-06  gal_w_flow
  1 14 22     796.83750011  7.50205104E-06  gal_w_flow
  2 14 22     787.76864418  7.50205104E-06  gal_w_flow
  3 14 22     778.69978825  7.50205104E-06  gal_w_flow
  1 14 23     823.50189209  7.50205104E-06  gal_w_flow
  2 14 23     802.36686799  7.50205104E-06  gal_w_flow
  3 14 23     781.23184390  7.50205104E-06  gal_w_flow
END period  1320

