# File generated by Flopy version 3.3.4 on 10/04/2021 at 21:34:23.
BEGIN options
  COMPLEXITY  complex
END options

