# File generated by Flopy version 3.3.2 on 05/30/2021 at 16:52:00.
BEGIN options
  COMPLEXITY  complex
END options

