# File generated by Flopy version 3.3.4 on 06/25/2022 at 19:42:25.
BEGIN options
  BOUNDNAMES
  PRINT_FLOWS
  SAVE_FLOWS
  OBS6  FILEIN  modelo_Norte_gal.drn.obs
END options

BEGIN dimensions
  MAXBOUND  196
END dimensions

BEGIN period  1188
  1 60 78     748.00000000  2.19827408E-05  gal_flow
END period  1188

BEGIN period  1189
  1 60 78     748.00000000  2.19827408E-05  gal_flow
  1 60 79     748.02930231  2.26846566E-05  gal_flow
END period  1189

BEGIN period  1191
  1 60 78     748.00000000  2.19827408E-05  gal_flow
  1 60 79     748.02930231  2.26846566E-05  gal_flow
  1 60 80     748.05954025  2.26846566E-05  gal_flow
END period  1191

BEGIN period  1192
  1 60 78     748.00000000  2.19827408E-05  gal_flow
  1 60 79     748.02930231  2.26846566E-05  gal_flow
  1 60 80     748.05954025  2.26846566E-05  gal_flow
  1 60 81     748.08977819  2.26846566E-05  gal_flow
END period  1192

BEGIN period  1193
  1 60 78     748.00000000  2.19827408E-05  gal_flow
  1 60 79     748.02930231  2.26846566E-05  gal_flow
  1 60 80     748.05954025  2.26846566E-05  gal_flow
  1 60 81     748.08977819  2.26846566E-05  gal_flow
  1 60 82     748.12001613  2.26846566E-05  gal_flow
END period  1193

BEGIN period  1195
  1 60 78     748.00000000  2.19827408E-05  gal_flow
  1 60 79     748.02930231  2.26846566E-05  gal_flow
  1 60 80     748.05954025  2.26846566E-05  gal_flow
  1 60 81     748.08977819  2.26846566E-05  gal_flow
  1 60 82     748.12001613  2.26846566E-05  gal_flow
  1 60 83     748.15025407  2.26846566E-05  gal_flow
  1 60 84     748.18049201  3.44060049E-06  gal_flow
END period  1195

BEGIN period  1196
  1 60 78     748.00000000  2.19827408E-05  gal_flow
  1 60 79     748.02930231  2.26846566E-05  gal_flow
  1 60 80     748.05954025  2.26846566E-05  gal_flow
  1 60 81     748.08977819  2.26846566E-05  gal_flow
  1 60 82     748.12001613  2.26846566E-05  gal_flow
  1 60 83     748.15025407  2.26846566E-05  gal_flow
  1 60 84     748.18049201  3.44060049E-06  gal_flow
  1 59 84     748.18507822  1.92440562E-05  gal_flow
END period  1196

BEGIN period  1197
  1 60 78     748.00000000  2.19827408E-05  gal_flow
  1 60 79     748.02930231  2.26846566E-05  gal_flow
  1 60 80     748.05954025  2.26846566E-05  gal_flow
  1 60 81     748.08977819  2.26846566E-05  gal_flow
  1 60 82     748.12001613  2.26846566E-05  gal_flow
  1 60 83     748.15025407  2.26846566E-05  gal_flow
  1 60 84     748.18049201  3.44060049E-06  gal_flow
  1 59 84     748.18507822  1.92440562E-05  gal_flow
  1 59 85     748.21072995  2.26846566E-05  gal_flow
END period  1197

BEGIN period  1199
  1 60 78     748.00000000  2.19827408E-05  gal_flow
  1 60 79     748.02930231  2.26846566E-05  gal_flow
  1 60 80     748.05954025  2.26846566E-05  gal_flow
  1 60 81     748.08977819  2.26846566E-05  gal_flow
  1 60 82     748.12001613  2.26846566E-05  gal_flow
  1 60 83     748.15025407  2.26846566E-05  gal_flow
  1 60 84     748.18049201  3.44060049E-06  gal_flow
  1 59 84     748.18507822  1.92440562E-05  gal_flow
  1 59 85     748.21072995  2.26846566E-05  gal_flow
  1 59 86     748.24096789  2.26846566E-05  gal_flow
END period  1199

BEGIN period  1200
  1 60 78     748.00000000  2.19827408E-05  gal_flow
  1 60 79     748.02930231  2.26846566E-05  gal_flow
  1 60 80     748.05954025  2.26846566E-05  gal_flow
  1 60 81     748.08977819  2.26846566E-05  gal_flow
  1 60 82     748.12001613  2.26846566E-05  gal_flow
  1 60 83     748.15025407  2.26846566E-05  gal_flow
  1 60 84     748.18049201  3.44060049E-06  gal_flow
  1 59 84     748.18507822  1.92440562E-05  gal_flow
  1 59 85     748.21072995  2.26846566E-05  gal_flow
  1 59 86     748.24096789  2.26846566E-05  gal_flow
  1 59 87     748.27120582  2.26846566E-05  gal_flow
END period  1200

BEGIN period  1202
  1 60 78     748.00000000  2.19827408E-05  gal_flow
  1 60 79     748.02930231  2.26846566E-05  gal_flow
  1 60 80     748.05954025  2.26846566E-05  gal_flow
  1 60 81     748.08977819  2.26846566E-05  gal_flow
  1 60 82     748.12001613  2.26846566E-05  gal_flow
  1 60 83     748.15025407  2.26846566E-05  gal_flow
  1 60 84     748.18049201  3.44060049E-06  gal_flow
  1 59 84     748.18507822  1.92440562E-05  gal_flow
  1 59 85     748.21072995  2.26846566E-05  gal_flow
  1 59 86     748.24096789  2.26846566E-05  gal_flow
  1 59 87     748.27120582  2.26846566E-05  gal_flow
  1 59 88     748.30144376  2.26846566E-05  gal_flow
END period  1202

BEGIN period  1203
  1 60 78     748.00000000  2.19827408E-05  gal_flow
  1 60 79     748.02930231  2.26846566E-05  gal_flow
  1 60 80     748.05954025  2.26846566E-05  gal_flow
  1 60 81     748.08977819  2.26846566E-05  gal_flow
  1 60 82     748.12001613  2.26846566E-05  gal_flow
  1 60 83     748.15025407  2.26846566E-05  gal_flow
  1 60 84     748.18049201  3.44060049E-06  gal_flow
  1 59 84     748.18507822  1.92440562E-05  gal_flow
  1 59 85     748.21072995  2.26846566E-05  gal_flow
  1 59 86     748.24096789  2.26846566E-05  gal_flow
  1 59 87     748.27120582  2.26846566E-05  gal_flow
  1 59 88     748.30144376  2.26846566E-05  gal_flow
  2 59 89     748.33168170  2.26846566E-05  gal_flow
END period  1203

BEGIN period  1204
  1 60 78     748.00000000  2.19827408E-05  gal_flow
  1 60 79     748.02930231  2.26846566E-05  gal_flow
  1 60 80     748.05954025  2.26846566E-05  gal_flow
  1 60 81     748.08977819  2.26846566E-05  gal_flow
  1 60 82     748.12001613  2.26846566E-05  gal_flow
  1 60 83     748.15025407  2.26846566E-05  gal_flow
  1 60 84     748.18049201  3.44060049E-06  gal_flow
  1 59 84     748.18507822  1.92440562E-05  gal_flow
  1 59 85     748.21072995  2.26846566E-05  gal_flow
  1 59 86     748.24096789  2.26846566E-05  gal_flow
  1 59 87     748.27120582  2.26846566E-05  gal_flow
  1 59 88     748.30144376  2.26846566E-05  gal_flow
  2 59 89     748.33168170  2.26846566E-05  gal_flow
  2 59 90     748.36191964  2.26846566E-05  gal_flow
END period  1204

BEGIN period  1206
  1 60 78     748.00000000  2.19827408E-05  gal_flow
  1 60 79     748.02930231  2.26846566E-05  gal_flow
  1 60 80     748.05954025  2.26846566E-05  gal_flow
  1 60 81     748.08977819  2.26846566E-05  gal_flow
  1 60 82     748.12001613  2.26846566E-05  gal_flow
  1 60 83     748.15025407  2.26846566E-05  gal_flow
  1 60 84     748.18049201  3.44060049E-06  gal_flow
  1 59 84     748.18507822  1.92440562E-05  gal_flow
  1 59 85     748.21072995  2.26846566E-05  gal_flow
  1 59 86     748.24096789  2.26846566E-05  gal_flow
  1 59 87     748.27120582  2.26846566E-05  gal_flow
  1 59 88     748.30144376  2.26846566E-05  gal_flow
  2 59 89     748.33168170  2.26846566E-05  gal_flow
  2 59 90     748.36191964  2.26846566E-05  gal_flow
  2 59 91     748.39215758  2.26846566E-05  gal_flow
  2 59 92     748.42239552  1.72002223E-06  gal_flow
END period  1206

BEGIN period  1207
  1 60 78     748.00000000  2.19827408E-05  gal_flow
  1 60 79     748.02930231  2.26846566E-05  gal_flow
  1 60 80     748.05954025  2.26846566E-05  gal_flow
  1 60 81     748.08977819  2.26846566E-05  gal_flow
  1 60 82     748.12001613  2.26846566E-05  gal_flow
  1 60 83     748.15025407  2.26846566E-05  gal_flow
  1 60 84     748.18049201  3.44060049E-06  gal_flow
  1 59 84     748.18507822  1.92440562E-05  gal_flow
  1 59 85     748.21072995  2.26846566E-05  gal_flow
  1 59 86     748.24096789  2.26846566E-05  gal_flow
  1 59 87     748.27120582  2.26846566E-05  gal_flow
  1 59 88     748.30144376  2.26846566E-05  gal_flow
  2 59 89     748.33168170  2.26846566E-05  gal_flow
  2 59 90     748.36191964  2.26846566E-05  gal_flow
  2 59 91     748.39215758  2.26846566E-05  gal_flow
  2 59 92     748.42239552  1.72002223E-06  gal_flow
  2 58 92     748.42468826  2.09646344E-05  gal_flow
END period  1207

BEGIN period  1208
  1 60 78     748.00000000  2.19827408E-05  gal_flow
  1 60 79     748.02930231  2.26846566E-05  gal_flow
  1 60 80     748.05954025  2.26846566E-05  gal_flow
  1 60 81     748.08977819  2.26846566E-05  gal_flow
  1 60 82     748.12001613  2.26846566E-05  gal_flow
  1 60 83     748.15025407  2.26846566E-05  gal_flow
  1 60 84     748.18049201  3.44060049E-06  gal_flow
  1 59 84     748.18507822  1.92440562E-05  gal_flow
  1 59 85     748.21072995  2.26846566E-05  gal_flow
  1 59 86     748.24096789  2.26846566E-05  gal_flow
  1 59 87     748.27120582  2.26846566E-05  gal_flow
  1 59 88     748.30144376  2.26846566E-05  gal_flow
  2 59 89     748.33168170  2.26846566E-05  gal_flow
  2 59 90     748.36191964  2.26846566E-05  gal_flow
  2 59 91     748.39215758  2.26846566E-05  gal_flow
  2 59 92     748.42239552  1.72002223E-06  gal_flow
  2 58 92     748.42468826  2.09646344E-05  gal_flow
  2 58 93     748.45263346  2.26846566E-05  gal_flow
END period  1208

BEGIN period  1210
  1 60 78     748.00000000  2.19827408E-05  gal_flow
  1 60 79     748.02930231  2.26846566E-05  gal_flow
  1 60 80     748.05954025  2.26846566E-05  gal_flow
  1 60 81     748.08977819  2.26846566E-05  gal_flow
  1 60 82     748.12001613  2.26846566E-05  gal_flow
  1 60 83     748.15025407  2.26846566E-05  gal_flow
  1 60 84     748.18049201  3.44060049E-06  gal_flow
  1 59 84     748.18507822  1.92440562E-05  gal_flow
  1 59 85     748.21072995  2.26846566E-05  gal_flow
  1 59 86     748.24096789  2.26846566E-05  gal_flow
  1 59 87     748.27120582  2.26846566E-05  gal_flow
  1 59 88     748.30144376  2.26846566E-05  gal_flow
  2 59 89     748.33168170  2.26846566E-05  gal_flow
  2 59 90     748.36191964  2.26846566E-05  gal_flow
  2 59 91     748.39215758  2.26846566E-05  gal_flow
  2 59 92     748.42239552  1.72002223E-06  gal_flow
  2 58 92     748.42468826  2.09646344E-05  gal_flow
  2 58 93     748.45263346  2.26846566E-05  gal_flow
  2 58 94     748.48287140  2.26846566E-05  gal_flow
END period  1210

BEGIN period  1211
  1 60 78     748.00000000  2.19827408E-05  gal_flow
  1 60 79     748.02930231  2.26846566E-05  gal_flow
  1 60 80     748.05954025  2.26846566E-05  gal_flow
  1 60 81     748.08977819  2.26846566E-05  gal_flow
  1 60 82     748.12001613  2.26846566E-05  gal_flow
  1 60 83     748.15025407  2.26846566E-05  gal_flow
  1 60 84     748.18049201  3.44060049E-06  gal_flow
  1 59 84     748.18507822  1.92440562E-05  gal_flow
  1 59 85     748.21072995  2.26846566E-05  gal_flow
  1 59 86     748.24096789  2.26846566E-05  gal_flow
  1 59 87     748.27120582  2.26846566E-05  gal_flow
  1 59 88     748.30144376  2.26846566E-05  gal_flow
  2 59 89     748.33168170  2.26846566E-05  gal_flow
  2 59 90     748.36191964  2.26846566E-05  gal_flow
  2 59 91     748.39215758  2.26846566E-05  gal_flow
  2 59 92     748.42239552  1.72002223E-06  gal_flow
  2 58 92     748.42468826  2.09646344E-05  gal_flow
  2 58 93     748.45263346  2.26846566E-05  gal_flow
  2 58 94     748.48287140  2.26846566E-05  gal_flow
  2 58 95     748.51310934  2.26846566E-05  gal_flow
END period  1211

BEGIN period  1213
  1 60 78     748.00000000  2.19827408E-05  gal_flow
  1 60 79     748.02930231  2.26846566E-05  gal_flow
  1 60 80     748.05954025  2.26846566E-05  gal_flow
  1 60 81     748.08977819  2.26846566E-05  gal_flow
  1 60 82     748.12001613  2.26846566E-05  gal_flow
  1 60 83     748.15025407  2.26846566E-05  gal_flow
  1 60 84     748.18049201  3.44060049E-06  gal_flow
  1 59 84     748.18507822  1.92440562E-05  gal_flow
  1 59 85     748.21072995  2.26846566E-05  gal_flow
  1 59 86     748.24096789  2.26846566E-05  gal_flow
  1 59 87     748.27120582  2.26846566E-05  gal_flow
  1 59 88     748.30144376  2.26846566E-05  gal_flow
  2 59 89     748.33168170  2.26846566E-05  gal_flow
  2 59 90     748.36191964  2.26846566E-05  gal_flow
  2 59 91     748.39215758  2.26846566E-05  gal_flow
  2 59 92     748.42239552  1.72002223E-06  gal_flow
  2 58 92     748.42468826  2.09646344E-05  gal_flow
  2 58 93     748.45263346  2.26846566E-05  gal_flow
  2 58 94     748.48287140  2.26846566E-05  gal_flow
  2 58 95     748.51310934  2.26846566E-05  gal_flow
  2 58 96     748.54334728  2.26846566E-05  gal_flow
END period  1213

BEGIN period  1214
  1 60 78     748.00000000  2.19827408E-05  gal_flow
  1 60 79     748.02930231  2.26846566E-05  gal_flow
  1 60 80     748.05954025  2.26846566E-05  gal_flow
  1 60 81     748.08977819  2.26846566E-05  gal_flow
  1 60 82     748.12001613  2.26846566E-05  gal_flow
  1 60 83     748.15025407  2.26846566E-05  gal_flow
  1 60 84     748.18049201  3.44060049E-06  gal_flow
  1 59 84     748.18507822  1.92440562E-05  gal_flow
  1 59 85     748.21072995  2.26846566E-05  gal_flow
  1 59 86     748.24096789  2.26846566E-05  gal_flow
  1 59 87     748.27120582  2.26846566E-05  gal_flow
  1 59 88     748.30144376  2.26846566E-05  gal_flow
  2 59 89     748.33168170  2.26846566E-05  gal_flow
  2 59 90     748.36191964  2.26846566E-05  gal_flow
  2 59 91     748.39215758  2.26846566E-05  gal_flow
  2 59 92     748.42239552  1.72002223E-06  gal_flow
  2 58 92     748.42468826  2.09646344E-05  gal_flow
  2 58 93     748.45263346  2.26846566E-05  gal_flow
  2 58 94     748.48287140  2.26846566E-05  gal_flow
  2 58 95     748.51310934  2.26846566E-05  gal_flow
  2 58 96     748.54334728  2.26846566E-05  gal_flow
  2 58 97     748.57358522  2.26846566E-05  gal_flow
END period  1214

BEGIN period  1215
  1 60 78     748.00000000  2.19827408E-05  gal_flow
  1 60 79     748.02930231  2.26846566E-05  gal_flow
  1 60 80     748.05954025  2.26846566E-05  gal_flow
  1 60 81     748.08977819  2.26846566E-05  gal_flow
  1 60 82     748.12001613  2.26846566E-05  gal_flow
  1 60 83     748.15025407  2.26846566E-05  gal_flow
  1 60 84     748.18049201  3.44060049E-06  gal_flow
  1 59 84     748.18507822  1.92440562E-05  gal_flow
  1 59 85     748.21072995  2.26846566E-05  gal_flow
  1 59 86     748.24096789  2.26846566E-05  gal_flow
  1 59 87     748.27120582  2.26846566E-05  gal_flow
  1 59 88     748.30144376  2.26846566E-05  gal_flow
  2 59 89     748.33168170  2.26846566E-05  gal_flow
  2 59 90     748.36191964  2.26846566E-05  gal_flow
  2 59 91     748.39215758  2.26846566E-05  gal_flow
  2 59 92     748.42239552  1.72002223E-06  gal_flow
  2 58 92     748.42468826  2.09646344E-05  gal_flow
  2 58 93     748.45263346  2.26846566E-05  gal_flow
  2 58 94     748.48287140  2.26846566E-05  gal_flow
  2 58 95     748.51310934  2.26846566E-05  gal_flow
  2 58 96     748.54334728  2.26846566E-05  gal_flow
  2 58 97     748.57358522  2.26846566E-05  gal_flow
  2 58 98     748.60382316  2.26846566E-05  gal_flow
END period  1215

BEGIN period  1217
  1 60 78     748.00000000  2.19827408E-05  gal_flow
  1 60 79     748.02930231  2.26846566E-05  gal_flow
  1 60 80     748.05954025  2.26846566E-05  gal_flow
  1 60 81     748.08977819  2.26846566E-05  gal_flow
  1 60 82     748.12001613  2.26846566E-05  gal_flow
  1 60 83     748.15025407  2.26846566E-05  gal_flow
  1 60 84     748.18049201  3.44060049E-06  gal_flow
  1 59 84     748.18507822  1.92440562E-05  gal_flow
  1 59 85     748.21072995  2.26846566E-05  gal_flow
  1 59 86     748.24096789  2.26846566E-05  gal_flow
  1 59 87     748.27120582  2.26846566E-05  gal_flow
  1 59 88     748.30144376  2.26846566E-05  gal_flow
  2 59 89     748.33168170  2.26846566E-05  gal_flow
  2 59 90     748.36191964  2.26846566E-05  gal_flow
  2 59 91     748.39215758  2.26846566E-05  gal_flow
  2 59 92     748.42239552  1.72002223E-06  gal_flow
  2 58 92     748.42468826  2.09646344E-05  gal_flow
  2 58 93     748.45263346  2.26846566E-05  gal_flow
  2 58 94     748.48287140  2.26846566E-05  gal_flow
  2 58 95     748.51310934  2.26846566E-05  gal_flow
  2 58 96     748.54334728  2.26846566E-05  gal_flow
  2 58 97     748.57358522  2.26846566E-05  gal_flow
  2 58 98     748.60382316  2.26846566E-05  gal_flow
  2 58 99     748.63406110  2.26841006E-05  gal_flow
  2 57 99     748.66429830  5.56027329E-10  gal_flow
END period  1217

BEGIN period  1218
  1 60 78     748.00000000  2.19827408E-05  gal_flow
  1 60 79     748.02930231  2.26846566E-05  gal_flow
  1 60 80     748.05954025  2.26846566E-05  gal_flow
  1 60 81     748.08977819  2.26846566E-05  gal_flow
  1 60 82     748.12001613  2.26846566E-05  gal_flow
  1 60 83     748.15025407  2.26846566E-05  gal_flow
  1 60 84     748.18049201  3.44060049E-06  gal_flow
  1 59 84     748.18507822  1.92440562E-05  gal_flow
  1 59 85     748.21072995  2.26846566E-05  gal_flow
  1 59 86     748.24096789  2.26846566E-05  gal_flow
  1 59 87     748.27120582  2.26846566E-05  gal_flow
  1 59 88     748.30144376  2.26846566E-05  gal_flow
  2 59 89     748.33168170  2.26846566E-05  gal_flow
  2 59 90     748.36191964  2.26846566E-05  gal_flow
  2 59 91     748.39215758  2.26846566E-05  gal_flow
  2 59 92     748.42239552  1.72002223E-06  gal_flow
  2 58 92     748.42468826  2.09646344E-05  gal_flow
  2 58 93     748.45263346  2.26846566E-05  gal_flow
  2 58 94     748.48287140  2.26846566E-05  gal_flow
  2 58 95     748.51310934  2.26846566E-05  gal_flow
  2 58 96     748.54334728  2.26846566E-05  gal_flow
  2 58 97     748.57358522  2.26846566E-05  gal_flow
  2 58 98     748.60382316  2.26846566E-05  gal_flow
  2 58 99     748.63406110  2.26841006E-05  gal_flow
  2 57 99     748.66429830  5.56027329E-10  gal_flow
  2 57 100     748.66429904  2.26846566E-05  gal_flow
END period  1218

BEGIN period  1219
  1 60 78     748.00000000  2.19827408E-05  gal_flow
  1 60 79     748.02930231  2.26846566E-05  gal_flow
  1 60 80     748.05954025  2.26846566E-05  gal_flow
  1 60 81     748.08977819  2.26846566E-05  gal_flow
  1 60 82     748.12001613  2.26846566E-05  gal_flow
  1 60 83     748.15025407  2.26846566E-05  gal_flow
  1 60 84     748.18049201  3.44060049E-06  gal_flow
  1 59 84     748.18507822  1.92440562E-05  gal_flow
  1 59 85     748.21072995  2.26846566E-05  gal_flow
  1 59 86     748.24096789  2.26846566E-05  gal_flow
  1 59 87     748.27120582  2.26846566E-05  gal_flow
  1 59 88     748.30144376  2.26846566E-05  gal_flow
  2 59 89     748.33168170  2.26846566E-05  gal_flow
  2 59 90     748.36191964  2.26846566E-05  gal_flow
  2 59 91     748.39215758  2.26846566E-05  gal_flow
  2 59 92     748.42239552  1.72002223E-06  gal_flow
  2 58 92     748.42468826  2.09646344E-05  gal_flow
  2 58 93     748.45263346  2.26846566E-05  gal_flow
  2 58 94     748.48287140  2.26846566E-05  gal_flow
  2 58 95     748.51310934  2.26846566E-05  gal_flow
  2 58 96     748.54334728  2.26846566E-05  gal_flow
  2 58 97     748.57358522  2.26846566E-05  gal_flow
  2 58 98     748.60382316  2.26846566E-05  gal_flow
  2 58 99     748.63406110  2.26841006E-05  gal_flow
  2 57 99     748.66429830  5.56027329E-10  gal_flow
  2 57 100     748.66429904  2.26846566E-05  gal_flow
  2 57 101     748.69453698  2.26846566E-05  gal_flow
END period  1219

BEGIN period  1221
  1 60 78     748.00000000  2.19827408E-05  gal_flow
  1 60 79     748.02930231  2.26846566E-05  gal_flow
  1 60 80     748.05954025  2.26846566E-05  gal_flow
  1 60 81     748.08977819  2.26846566E-05  gal_flow
  1 60 82     748.12001613  2.26846566E-05  gal_flow
  1 60 83     748.15025407  2.26846566E-05  gal_flow
  1 60 84     748.18049201  3.44060049E-06  gal_flow
  1 59 84     748.18507822  1.92440562E-05  gal_flow
  1 59 85     748.21072995  2.26846566E-05  gal_flow
  1 59 86     748.24096789  2.26846566E-05  gal_flow
  1 59 87     748.27120582  2.26846566E-05  gal_flow
  1 59 88     748.30144376  2.26846566E-05  gal_flow
  2 59 89     748.33168170  2.26846566E-05  gal_flow
  2 59 90     748.36191964  2.26846566E-05  gal_flow
  2 59 91     748.39215758  2.26846566E-05  gal_flow
  2 59 92     748.42239552  1.72002223E-06  gal_flow
  2 58 92     748.42468826  2.09646344E-05  gal_flow
  2 58 93     748.45263346  2.26846566E-05  gal_flow
  2 58 94     748.48287140  2.26846566E-05  gal_flow
  2 58 95     748.51310934  2.26846566E-05  gal_flow
  2 58 96     748.54334728  2.26846566E-05  gal_flow
  2 58 97     748.57358522  2.26846566E-05  gal_flow
  2 58 98     748.60382316  2.26846566E-05  gal_flow
  2 58 99     748.63406110  2.26841006E-05  gal_flow
  2 57 99     748.66429830  5.56027329E-10  gal_flow
  2 57 100     748.66429904  2.26846566E-05  gal_flow
  2 57 101     748.69453698  2.26846566E-05  gal_flow
  2 57 102     748.72477492  2.26846566E-05  gal_flow
END period  1221

BEGIN period  1222
  1 60 78     748.00000000  2.19827408E-05  gal_flow
  1 60 79     748.02930231  2.26846566E-05  gal_flow
  1 60 80     748.05954025  2.26846566E-05  gal_flow
  1 60 81     748.08977819  2.26846566E-05  gal_flow
  1 60 82     748.12001613  2.26846566E-05  gal_flow
  1 60 83     748.15025407  2.26846566E-05  gal_flow
  1 60 84     748.18049201  3.44060049E-06  gal_flow
  1 59 84     748.18507822  1.92440562E-05  gal_flow
  1 59 85     748.21072995  2.26846566E-05  gal_flow
  1 59 86     748.24096789  2.26846566E-05  gal_flow
  1 59 87     748.27120582  2.26846566E-05  gal_flow
  1 59 88     748.30144376  2.26846566E-05  gal_flow
  2 59 89     748.33168170  2.26846566E-05  gal_flow
  2 59 90     748.36191964  2.26846566E-05  gal_flow
  2 59 91     748.39215758  2.26846566E-05  gal_flow
  2 59 92     748.42239552  1.72002223E-06  gal_flow
  2 58 92     748.42468826  2.09646344E-05  gal_flow
  2 58 93     748.45263346  2.26846566E-05  gal_flow
  2 58 94     748.48287140  2.26846566E-05  gal_flow
  2 58 95     748.51310934  2.26846566E-05  gal_flow
  2 58 96     748.54334728  2.26846566E-05  gal_flow
  2 58 97     748.57358522  2.26846566E-05  gal_flow
  2 58 98     748.60382316  2.26846566E-05  gal_flow
  2 58 99     748.63406110  2.26841006E-05  gal_flow
  2 57 99     748.66429830  5.56027329E-10  gal_flow
  2 57 100     748.66429904  2.26846566E-05  gal_flow
  2 57 101     748.69453698  2.26846566E-05  gal_flow
  2 57 102     748.72477492  2.26846566E-05  gal_flow
  2 57 103     748.75501286  2.26846566E-05  gal_flow
END period  1222

BEGIN period  1224
  1 60 78     748.00000000  2.19827408E-05  gal_flow
  1 60 79     748.02930231  2.26846566E-05  gal_flow
  1 60 80     748.05954025  2.26846566E-05  gal_flow
  1 60 81     748.08977819  2.26846566E-05  gal_flow
  1 60 82     748.12001613  2.26846566E-05  gal_flow
  1 60 83     748.15025407  2.26846566E-05  gal_flow
  1 60 84     748.18049201  3.44060049E-06  gal_flow
  1 59 84     748.18507822  1.92440562E-05  gal_flow
  1 59 85     748.21072995  2.26846566E-05  gal_flow
  1 59 86     748.24096789  2.26846566E-05  gal_flow
  1 59 87     748.27120582  2.26846566E-05  gal_flow
  1 59 88     748.30144376  2.26846566E-05  gal_flow
  2 59 89     748.33168170  2.26846566E-05  gal_flow
  2 59 90     748.36191964  2.26846566E-05  gal_flow
  2 59 91     748.39215758  2.26846566E-05  gal_flow
  2 59 92     748.42239552  1.72002223E-06  gal_flow
  2 58 92     748.42468826  2.09646344E-05  gal_flow
  2 58 93     748.45263346  2.26846566E-05  gal_flow
  2 58 94     748.48287140  2.26846566E-05  gal_flow
  2 58 95     748.51310934  2.26846566E-05  gal_flow
  2 58 96     748.54334728  2.26846566E-05  gal_flow
  2 58 97     748.57358522  2.26846566E-05  gal_flow
  2 58 98     748.60382316  2.26846566E-05  gal_flow
  2 58 99     748.63406110  2.26841006E-05  gal_flow
  2 57 99     748.66429830  5.56027329E-10  gal_flow
  2 57 100     748.66429904  2.26846566E-05  gal_flow
  2 57 101     748.69453698  2.26846566E-05  gal_flow
  2 57 102     748.72477492  2.26846566E-05  gal_flow
  2 57 103     748.75501286  2.26846566E-05  gal_flow
  2 57 104     748.78525080  2.26846566E-05  gal_flow
END period  1224

BEGIN period  1225
  1 60 78     748.00000000  2.19827408E-05  gal_flow
  1 60 79     748.02930231  2.26846566E-05  gal_flow
  1 60 80     748.05954025  2.26846566E-05  gal_flow
  1 60 81     748.08977819  2.26846566E-05  gal_flow
  1 60 82     748.12001613  2.26846566E-05  gal_flow
  1 60 83     748.15025407  2.26846566E-05  gal_flow
  1 60 84     748.18049201  3.44060049E-06  gal_flow
  1 59 84     748.18507822  1.92440562E-05  gal_flow
  1 59 85     748.21072995  2.26846566E-05  gal_flow
  1 59 86     748.24096789  2.26846566E-05  gal_flow
  1 59 87     748.27120582  2.26846566E-05  gal_flow
  1 59 88     748.30144376  2.26846566E-05  gal_flow
  2 59 89     748.33168170  2.26846566E-05  gal_flow
  2 59 90     748.36191964  2.26846566E-05  gal_flow
  2 59 91     748.39215758  2.26846566E-05  gal_flow
  2 59 92     748.42239552  1.72002223E-06  gal_flow
  2 58 92     748.42468826  2.09646344E-05  gal_flow
  2 58 93     748.45263346  2.26846566E-05  gal_flow
  2 58 94     748.48287140  2.26846566E-05  gal_flow
  2 58 95     748.51310934  2.26846566E-05  gal_flow
  2 58 96     748.54334728  2.26846566E-05  gal_flow
  2 58 97     748.57358522  2.26846566E-05  gal_flow
  2 58 98     748.60382316  2.26846566E-05  gal_flow
  2 58 99     748.63406110  2.26841006E-05  gal_flow
  2 57 99     748.66429830  5.56027329E-10  gal_flow
  2 57 100     748.66429904  2.26846566E-05  gal_flow
  2 57 101     748.69453698  2.26846566E-05  gal_flow
  2 57 102     748.72477492  2.26846566E-05  gal_flow
  2 57 103     748.75501286  2.26846566E-05  gal_flow
  2 57 104     748.78525080  2.26846566E-05  gal_flow
  2 57 105     748.81548874  2.26846566E-05  gal_flow
END period  1225

BEGIN period  1226
  1 60 78     748.00000000  2.19827408E-05  gal_flow
  1 60 79     748.02930231  2.26846566E-05  gal_flow
  1 60 80     748.05954025  2.26846566E-05  gal_flow
  1 60 81     748.08977819  2.26846566E-05  gal_flow
  1 60 82     748.12001613  2.26846566E-05  gal_flow
  1 60 83     748.15025407  2.26846566E-05  gal_flow
  1 60 84     748.18049201  3.44060049E-06  gal_flow
  1 59 84     748.18507822  1.92440562E-05  gal_flow
  1 59 85     748.21072995  2.26846566E-05  gal_flow
  1 59 86     748.24096789  2.26846566E-05  gal_flow
  1 59 87     748.27120582  2.26846566E-05  gal_flow
  1 59 88     748.30144376  2.26846566E-05  gal_flow
  2 59 89     748.33168170  2.26846566E-05  gal_flow
  2 59 90     748.36191964  2.26846566E-05  gal_flow
  2 59 91     748.39215758  2.26846566E-05  gal_flow
  2 59 92     748.42239552  1.72002223E-06  gal_flow
  2 58 92     748.42468826  2.09646344E-05  gal_flow
  2 58 93     748.45263346  2.26846566E-05  gal_flow
  2 58 94     748.48287140  2.26846566E-05  gal_flow
  2 58 95     748.51310934  2.26846566E-05  gal_flow
  2 58 96     748.54334728  2.26846566E-05  gal_flow
  2 58 97     748.57358522  2.26846566E-05  gal_flow
  2 58 98     748.60382316  2.26846566E-05  gal_flow
  2 58 99     748.63406110  2.26841006E-05  gal_flow
  2 57 99     748.66429830  5.56027329E-10  gal_flow
  2 57 100     748.66429904  2.26846566E-05  gal_flow
  2 57 101     748.69453698  2.26846566E-05  gal_flow
  2 57 102     748.72477492  2.26846566E-05  gal_flow
  2 57 103     748.75501286  2.26846566E-05  gal_flow
  2 57 104     748.78525080  2.26846566E-05  gal_flow
  2 57 105     748.81548874  2.26846566E-05  gal_flow
  2 57 106     748.84572668  2.26846566E-05  gal_flow
END period  1226

BEGIN period  1228
  1 60 78     748.00000000  2.19827408E-05  gal_flow
  1 60 79     748.02930231  2.26846566E-05  gal_flow
  1 60 80     748.05954025  2.26846566E-05  gal_flow
  1 60 81     748.08977819  2.26846566E-05  gal_flow
  1 60 82     748.12001613  2.26846566E-05  gal_flow
  1 60 83     748.15025407  2.26846566E-05  gal_flow
  1 60 84     748.18049201  3.44060049E-06  gal_flow
  1 59 84     748.18507822  1.92440562E-05  gal_flow
  1 59 85     748.21072995  2.26846566E-05  gal_flow
  1 59 86     748.24096789  2.26846566E-05  gal_flow
  1 59 87     748.27120582  2.26846566E-05  gal_flow
  1 59 88     748.30144376  2.26846566E-05  gal_flow
  2 59 89     748.33168170  2.26846566E-05  gal_flow
  2 59 90     748.36191964  2.26846566E-05  gal_flow
  2 59 91     748.39215758  2.26846566E-05  gal_flow
  2 59 92     748.42239552  1.72002223E-06  gal_flow
  2 58 92     748.42468826  2.09646344E-05  gal_flow
  2 58 93     748.45263346  2.26846566E-05  gal_flow
  2 58 94     748.48287140  2.26846566E-05  gal_flow
  2 58 95     748.51310934  2.26846566E-05  gal_flow
  2 58 96     748.54334728  2.26846566E-05  gal_flow
  2 58 97     748.57358522  2.26846566E-05  gal_flow
  2 58 98     748.60382316  2.26846566E-05  gal_flow
  2 58 99     748.63406110  2.26841006E-05  gal_flow
  2 57 99     748.66429830  5.56027329E-10  gal_flow
  2 57 100     748.66429904  2.26846566E-05  gal_flow
  2 57 101     748.69453698  2.26846566E-05  gal_flow
  2 57 102     748.72477492  2.26846566E-05  gal_flow
  2 57 103     748.75501286  2.26846566E-05  gal_flow
  2 57 104     748.78525080  2.26846566E-05  gal_flow
  2 57 105     748.81548874  2.26846566E-05  gal_flow
  2 57 106     748.84572668  2.26846566E-05  gal_flow
  2 57 107     748.87596462  2.09635224E-05  gal_flow
  2 56 107     748.90390834  1.72113428E-06  gal_flow
END period  1228

BEGIN period  1229
  1 60 78     748.00000000  2.19827408E-05  gal_flow
  1 60 79     748.02930231  2.26846566E-05  gal_flow
  1 60 80     748.05954025  2.26846566E-05  gal_flow
  1 60 81     748.08977819  2.26846566E-05  gal_flow
  1 60 82     748.12001613  2.26846566E-05  gal_flow
  1 60 83     748.15025407  2.26846566E-05  gal_flow
  1 60 84     748.18049201  3.44060049E-06  gal_flow
  1 59 84     748.18507822  1.92440562E-05  gal_flow
  1 59 85     748.21072995  2.26846566E-05  gal_flow
  1 59 86     748.24096789  2.26846566E-05  gal_flow
  1 59 87     748.27120582  2.26846566E-05  gal_flow
  1 59 88     748.30144376  2.26846566E-05  gal_flow
  2 59 89     748.33168170  2.26846566E-05  gal_flow
  2 59 90     748.36191964  2.26846566E-05  gal_flow
  2 59 91     748.39215758  2.26846566E-05  gal_flow
  2 59 92     748.42239552  1.72002223E-06  gal_flow
  2 58 92     748.42468826  2.09646344E-05  gal_flow
  2 58 93     748.45263346  2.26846566E-05  gal_flow
  2 58 94     748.48287140  2.26846566E-05  gal_flow
  2 58 95     748.51310934  2.26846566E-05  gal_flow
  2 58 96     748.54334728  2.26846566E-05  gal_flow
  2 58 97     748.57358522  2.26846566E-05  gal_flow