# File generated by Flopy version 3.3.6 on 08/05/2022 at 21:26:49.
BEGIN dimensions
  MAXATS  1641
END dimensions

BEGIN perioddata
  2   86400.00000000  1.00000000E-05   86400.00000000       2.00000000       5.00000000
  3   86400.00000000  1.00000000E-05   86400.00000000       2.00000000       5.00000000
  4   86400.00000000  1.00000000E-05   86400.00000000       2.00000000       5.00000000
  5   86400.00000000  1.00000000E-05   86400.00000000       2.00000000       5.00000000
  6   86400.00000000  1.00000000E-05   86400.00000000       2.00000000       5.00000000
  7   86400.00000000  1.00000000E-05   86400.00000000       2.00000000       5.00000000
  8   86400.00000000  1.00000000E-05   86400.00000000       2.00000000       5.00000000
  9   86400.00000000  1.00000000E-05   86400.00000000       2.00000000       5.00000000
  10   86400.00000000  1.00000000E-05   86400.00000000       2.00000000       5.00000000
  11   86400.00000000  1.00000000E-05   86400.00000000       2.00000000       5.00000000
  12   86400.00000000  1.00000000E-05   86400.00000000       2.00000000       5.00000000
  13   86400.00000000  1.00000000E-05   86400.00000000       2.00000000       5.00000000
  14   86400.00000000  1.00000000E-05   86400.00000000       2.00000000       5.00000000
  15   86400.00000000  1.00000000E-05   86400.00000000       2.00000000       5.00000000
  16   86400.00000000  1.00000000E-05   86400.00000000       2.00000000       5.00000000
  17   86400.00000000  1.00000000E-05   86400.00000000       2.00000000       5.00000000
  18   86400.00000000  1.00000000E-05   86400.00000000       2.00000000       5.00000000
  19   86400.00000000  1.00000000E-05   86400.00000000       2.00000000       5.00000000
  20   86400.00000000  1.00000000E-05   86400.00000000       2.00000000       5.00000000
  21   86400.00000000  1.00000000E-05   86400.00000000       2.00000000       5.00000000
  22   86400.00000000  1.00000000E-05   86400.00000000       2.00000000       5.00000000
  23   86400.00000000  1.00000000E-05   86400.00000000       2.00000000       5.00000000
  24   86400.00000000  1.00000000E-05   86400.00000000       2.00000000       5.00000000
  25   86400.00000000  1.00000000E-05   86400.00000000       2.00000000       5.00000000
  26   86400.00000000  1.00000000E-05   86400.00000000       2.00000000       5.00000000
  27   86400.00000000  1.00000000E-05   86400.00000000       2.00000000       5.00000000
  28   86400.00000000  1.00000000E-05   86400.00000000       2.00000000       5.00000000
  29   86400.00000000  1.00000000E-05   86400.00000000       2.00000000       5.00000000
  30   86400.00000000  1.00000000E-05   86400.00000000       2.00000000       5.00000000
  31   86400.00000000  1.00000000E-05   86400.00000000       2.00000000       5.00000000
  32   86400.00000000  1.00000000E-05   86400.00000000       2.00000000       5.00000000
  33   86400.00000000  1.00000000E-05   86400.00000000       2.00000000       5.00000000
  34   86400.00000000  1.00000000E-05   86400.00000000       2.00000000       5.00000000
  35   86400.00000000  1.00000000E-05   86400.00000000       2.00000000       5.00000000
  36   86400.00000000  1.00000000E-05   86400.00000000       2.00000000       5.00000000
  37   86400.00000000  1.00000000E-05   86400.00000000       2.00000000       5.00000000
  38   86400.00000000  1.00000000E-05   86400.00000000       2.00000000       5.00000000
  39   86400.00000000  1.00000000E-05   86400.00000000       2.00000000       5.00000000
  40   86400.00000000  1.00000000E-05   86400.00000000       2.00000000       5.00000000
  41   86400.00000000  1.00000000E-05   86400.00000000       2.00000000       5.00000000
  42   86400.00000000  1.00000000E-05   86400.00000000       2.00000000       5.00000000
  43   86400.00000000  1.00000000E-05   86400.00000000       2.00000000       5.00000000
  44   86400.00000000  1.00000000E-05   86400.00000000       2.00000000       5.00000000
  45   86400.00000000  1.00000000E-05   86400.00000000       2.00000000       5.00000000
  46   86400.00000000  1.00000000E-05   86400.00000000       2.00000000       5.00000000
  47   86400.00000000  1.00000000E-05   86400.00000000       2.00000000       5.00000000
  48   86400.00000000  1.00000000E-05   86400.00000000       2.00000000       5.00000000
  49   86400.00000000  1.00000000E-05   86400.00000000       2.00000000       5.00000000
  50   86400.00000000  1.00000000E-05   86400.00000000       2.00000000       5.00000000
  51   86400.00000000  1.00000000E-05   86400.00000000       2.00000000       5.00000000
  52   86400.00000000  1.00000000E-05   86400.00000000       2.00000000       5.00000000
  53   86400.00000000  1.00000000E-05   86400.00000000       2.00000000       5.00000000
  54   86400.00000000  1.00000000E-05   86400.00000000       2.00000000       5.00000000
  55   86400.00000000  1.00000000E-05   86400.00000000       2.00000000       5.00000000
  56   86400.00000000  1.00000000E-05   86400.00000000       2.00000000       5.00000000
  57   86400.00000000  1.00000000E-05   86400.00000000       2.00000000       5.00000000
  58   86400.00000000  1.00000000E-05   86400.00000000       2.00000000       5.00000000
  59   86400.00000000  1.00000000E-05   86400.00000000       2.00000000       5.00000000
  60   86400.00000000  1.00000000E-05   86400.00000000       2.00000000       5.00000000
  61   86400.00000000  1.00000000E-05   86400.00000000       2.00000000       5.00000000
  62   86400.00000000  1.00000000E-05   86400.00000000       2.00000000       5.00000000
  63   86400.00000000  1.00000000E-05   86400.00000000       2.00000000       5.00000000
  64   86400.00000000  1.00000000E-05   86400.00000000       2.00000000       5.00000000
  65   86400.00000000  1.00000000E-05   86400.00000000       2.00000000       5.00000000
  66   86400.00000000  1.00000000E-05   86400.00000000       2.00000000       5.00000000
  67   86400.00000000  1.00000000E-05   86400.00000000       2.00000000       5.00000000
  68   86400.00000000  1.00000000E-05   86400.00000000       2.00000000       5.00000000
  69   86400.00000000  1.00000000E-05   86400.00000000       2.00000000       5.00000000
  70   86400.00000000  1.00000000E-05   86400.00000000       2.00000000       5.00000000
  71   86400.00000000  1.00000000E-05   86400.00000000       2.00000000       5.00000000
  72   86400.00000000  1.00000000E-05   86400.00000000       2.00000000       5.00000000
  73   86400.00000000  1.00000000E-05   86400.00000000       2.00000000       5.00000000
  74   86400.00000000  1.00000000E-05   86400.00000000       2.00000000       5.00000000
  75   86400.00000000  1.00000000E-05   86400.00000000       2.00000000       5.00000000
  76   86400.00000000  1.00000000E-05   86400.00000000       2.00000000       5.00000000
  77   86400.00000000  1.00000000E-05   86400.00000000       2.00000000       5.00000000
  78   86400.00000000  1.00000000E-05   86400.00000000       2.00000000       5.00000000
  79   86400.00000000  1.00000000E-05   86400.00000000       2.00000000       5.00000000
  80   86400.00000000  1.00000000E-05   86400.00000000       2.00000000       5.00000000
  81   86400.00000000  1.00000000E-05   86400.00000000       2.00000000       5.00000000
  82   86400.00000000  1.00000000E-05   86400.00000000       2.00000000       5.00000000
  83   86400.00000000  1.00000000E-05   86400.00000000       2.00000000       5.00000000
  84   86400.00000000  1.00000000E-05   86400.00000000       2.00000000       5.00000000
  85   86400.00000000  1.00000000E-05   86400.00000000       2.00000000       5.00000000
  86   86400.00000000  1.00000000E-05   86400.00000000       2.00000000       5.00000000
  87   86400.00000000  1.00000000E-05   86400.00000000       2.00000000       5.00000000
  88   86400.00000000  1.00000000E-05   86400.00000000       2.00000000       5.00000000
  89   86400.00000000  1.00000000E-05   86400.00000000       2.00000000       5.00000000
  90   86400.00000000  1.00000000E-05   86400.00000000       2.00000000       5.00000000
  91   86400.00000000  1.00000000E-05   86400.00000000       2.00000000       5.00000000
  92   86400.00000000  1.00000000E-05   86400.00000000       2.00000000       5.00000000
  93   86400.00000000  1.00000000E-05   86400.00000000       2.00000000       5.00000000
  94   86400.00000000  1.00000000E-05   86400.00000000       2.00000000       5.00000000
  95   86400.00000000  1.00000000E-05   86400.00000000       2.00000000       5.00000000
  96   86400.00000000  1.00000000E-05   86400.00000000       2.00000000       5.00000000
  97   86400.00000000  1.00000000E-05   86400.00000000       2.00000000       5.00000000
  98   86400.00000000  1.00000000E-05   86400.00000000       2.00000000       5.00000000
  99   86400.00000000  1.00000000E-05   86400.00000000       2.00000000       5.00000000
  100   86400.00000000  1.00000000E-05   86400.00000000       2.00000000       5.00000000
  101   86400.00000000  1.00000000E-05   86400.00000000       2.00000000       5.00000000
  102   86400.00000000  1.00000000E-05   86400.00000000       2.00000000       5.00000000
  103   86400.00000000  1.00000000E-05   86400.00000000       2.00000000       5.00000000
  104   86400.00000000  1.00000000E-05   86400.00000000       2.00000000       5.00000000
  105   86400.00000000  1.00000000E-05   86400.00000000       2.00000000       5.00000000
  106   86400.00000000  1.00000000E-05   86400.00000000       2.00000000       5.00000000
  107   86400.00000000  1.00000000E-05   86400.00000000       2.00000000       5.00000000
  108   86400.00000000  1.00000000E-05   86400.00000000       2.00000000       5.00000000
  109   86400.00000000  1.00000000E-05   86400.00000000       2.00000000       5.00000000
  110   86400.00000000  1.00000000E-05   86400.00000000       2.00000000       5.00000000
  111   86400.00000000  1.00000000E-05   86400.00000000       2.00000000       5.00000000
  112   86400.00000000  1.00000000E-05   86400.00000000       2.00000000       5.00000000
  113   86400.00000000  1.00000000E-05   86400.00000000       2.00000000       5.00000000
  114   86400.00000000  1.00000000E-05   86400.00000000       2.00000000       5.00000000
  115   86400.00000000  1.00000000E-05   86400.00000000       2.00000000       5.00000000
  116   86400.00000000  1.00000000E-05   86400.00000000       2.00000000       5.00000000
  117   86400.00000000  1.00000000E-05   86400.00000000       2.00000000       5.00000000
  118   86400.00000000  1.00000000E-05   86400.00000000       2.00000000       5.00000000
  119   86400.00000000  1.00000000E-05   86400.00000000       2.00000000       5.00000000
  120   86400.00000000  1.00000000E-05   86400.00000000       2.00000000       5.00000000
  121   86400.00000000  1.00000000E-05   86400.00000000       2.00000000       5.00000000
  122   86400.00000000  1.00000000E-05   86400.00000000       2.00000000       5.00000000
  123   86400.00000000  1.00000000E-05   86400.00000000       2.00000000       5.00000000
  124   86400.00000000  1.00000000E-05   86400.00000000       2.00000000       5.00000000
  125   86400.00000000  1.00000000E-05   86400.00000000       2.00000000       5.00000000
  126   86400.00000000  1.00000000E-05   86400.00000000       2.00000000       5.00000000
  127   86400.00000000  1.00000000E-05   86400.00000000       2.00000000       5.00000000
  128   86400.00000000  1.00000000E-05   86400.00000000       2.00000000       5.00000000
  129   86400.00000000  1.00000000E-05   86400.00000000       2.00000000       5.00000000
  130   86400.00000000  1.00000000E-05   86400.00000000       2.00000000       5.00000000
  131   86400.00000000  1.00000000E-05   86400.00000000       2.00000000       5.00000000
  132   86400.00000000  1.00000000E-05   86400.00000000       2.00000000       5.00000000
  133   86400.00000000  1.00000000E-05   86400.00000000       2.00000000       5.00000000
  134   86400.00000000  1.00000000E-05   86400.00000000       2.00000000       5.00000000
  135   86400.00000000  1.00000000E-05   86400.00000000       2.00000000       5.00000000
  136   86400.00000000  1.00000000E-05   86400.00000000       2.00000000       5.00000000
  137   86400.00000000  1.00000000E-05   86400.00000000       2.00000000       5.00000000
  138   86400.00000000  1.00000000E-05   86400.00000000       2.00000000       5.00000000
  139   86400.00000000  1.00000000E-05   86400.00000000       2.00000000       5.00000000
  140   86400.00000000  1.00000000E-05   86400.00000000       2.00000000       5.00000000
  141   86400.00000000  1.00000000E-05   86400.00000000       2.00000000       5.00000000
  142   86400.00000000  1.00000000E-05   86400.00000000       2.00000000       5.00000000
  143   86400.00000000  1.00000000E-05   86400.00000000       2.00000000       5.00000000
  144   86400.00000000  1.00000000E-05   86400.00000000       2.00000000       5.00000000
  145   86400.00000000  1.00000000E-05   86400.00000000       2.00000000       5.00000000
  146   86400.00000000  1.00000000E-05   86400.00000000       2.00000000       5.00000000
  147   86400.00000000  1.00000000E-05   86400.00000000       2.00000000       5.00000000
  148   86400.00000000  1.00000000E-05   86400.00000000       2.00000000       5.00000000
  149   86400.00000000  1.00000000E-05   86400.00000000       2.00000000       5.00000000
  150   86400.00000000  1.00000000E-05   86400.00000000       2.00000000       5.00000000
  151   86400.00000000  1.00000000E-05   86400.00000000       2.00000000       5.00000000
  152   86400.00000000  1.00000000E-05   86400.00000000       2.00000000       5.00000000
  153   86400.00000000  1.00000000E-05   86400.00000000       2.00000000       5.00000000
  154   86400.00000000  1.00000000E-05   86400.00000000       2.00000000       5.00000000
  155   86400.00000000  1.00000000E-05   86400.00000000       2.00000000       5.00000000
  156   86400.00000000  1.00000000E-05   86400.00000000       2.00000000       5.00000000
  157   86400.00000000  1.00000000E-05   86400.00000000       2.00000000       5.00000000
  158   86400.00000000  1.00000000E-05   86400.00000000       2.00000000       5.00000000
  159   86400.00000000  1.00000000E-05   86400.00000000       2.00000000       5.00000000
  160   86400.00000000  1.00000000E-05   86400.00000000       2.00000000       5.00000000
  161   86400.00000000  1.00000000E-05   86400.00000000       2.00000000       5.00000000
  162   86400.00000000  1.00000000E-05   86400.00000000       2.00000000       5.00000000
  163   86400.00000000  1.00000000E-05   86400.00000000       2.00000000       5.00000000
  164   86400.00000000  1.00000000E-05   86400.00000000       2.00000000       5.00000000
  165   86400.00000000  1.00000000E-05   86400.00000000       2.00000000       5.00000000
  166   86400.00000000  1.00000000E-05   86400.00000000       2.00000000       5.00000000
  167   86400.00000000  1.00000000E-05   86400.00000000       2.00000000       5.00000000
  168   86400.00000000  1.00000000E-05   86400.00000000       2.00000000       5.00000000
  169   86400.00000000  1.00000000E-05   86400.00000000       2.00000000       5.00000000
  170   86400.00000000  1.00000000E-05   86400.00000000       2.00000000       5.00000000
  171   86400.00000000  1.00000000E-05   86400.00000000       2.00000000       5.00000000
  172   86400.00000000  1.00000000E-05   86400.00000000       2.00000000       5.00000000
  173   86400.00000000  1.00000000E-05   86400.00000000       2.00000000       5.00000000
  174   86400.00000000  1.00000000E-05   86400.00000000       2.00000000       5.00000000
  175   86400.00000000  1.00000000E-05   86400.00000000       2.00000000       5.00000000
  176   86400.00000000  1.00000000E-05   86400.00000000       2.00000000       5.00000000
  177   86400.00000000  1.00000000E-05   86400.00000000       2.00000000       5.00000000
  178   86400.00000000  1.00000000E-05   86400.00000000       2.00000000       5.00000000
  179   86400.00000000  1.00000000E-05   86400.00000000       2.00000000       5.00000000
  180   86400.00000000  1.00000000E-05   86400.00000000       2.00000000       5.00000000
  181   86400.00000000  1.00000000E-05   86400.00000000       2.00000000       5.00000000
  182   86400.00000000  1.00000000E-05   86400.00000000       2.00000000       5.00000000
  183   86400.00000000  1.00000000E-05   86400.00000000       2.00000000       5.00000000
  184   86400.00000000  1.00000000E-05   86400.00000000       2.00000000       5.00000000
  185   86400.00000000  1.00000000E-05   86400.00000000       2.00000000       5.00000000
  186   86400.00000000  1.00000000E-05   86400.00000000       2.00000000       5.00000000
  187   86400.00000000  1.00000000E-05   86400.00000000       2.00000000       5.00000000
  188   86400.00000000  1.00000000E-05   86400.00000000       2.00000000       5.00000000
  189   86400.00000000  1.00000000E-05   86400.00000000       2.00000000       5.00000000
  190   86400.00000000  1.00000000E-05   86400.00000000       2.00000000       5.00000000
  191   86400.00000000  1.00000000E-05   86400.00000000       2.00000000       5.00000000
  192   86400.00000000  1.00000000E-05   86400.00000000       2.00000000       5.00000000
  193   86400.00000000  1.00000000E-05   86400.00000000       2.00000000       5.00000000
  194   86400.00000000  1.00000000E-05   86400.00000000       2.00000000       5.00000000
  195   86400.00000000  1.00000000E-05   86400.00000000       2.00000000       5.00000000
  196   86400.00000000  1.00000000E-05   86400.00000000       2.00000000       5.00000000
  197   86400.00000000  1.00000000E-05   86400.00000000       2.00000000       5.00000000
  198   86400.00000000  1.00000000E-05   86400.00000000       2.00000000       5.00000000
  199   86400.00000000  1.00000000E-05   86400.00000000       2.00000000       5.00000000
  200   86400.00000000  1.00000000E-05   86400.00000000       2.00000000       5.00000000
  201   86400.00000000  1.00000000E-05   86400.00000000       2.00000000       5.00000000
  202   86400.00000000  1.00000000E-05   86400.00000000       2.00000000       5.00000000
  203   86400.00000000  1.00000000E-05   86400.00000000       2.00000000       5.00000000
  204   86400.00000000  1.00000000E-05   86400.00000000       2.00000000       5.00000000
  205   86400.00000000  1.00000000E-05   86400.00000000       2.00000000       5.00000000
  206   86400.00000000  1.00000000E-05   86400.00000000       2.00000000       5.00000000
  207   86400.00000000  1.00000000E-05   86400.00000000       2.00000000       5.00000000
  208   86400.00000000  1.00000000E-05   86400.00000000       2.00000000       5.00000000
  209   86400.00000000  1.00000000E-05   86400.00000000       2.00000000       5.00000000
  210   86400.00000000  1.00000000E-05   86400.00000000       2.00000000       5.00000000
  211   86400.00000000  1.00000000E-05   86400.00000000       2.00000000       5.00000000
  212   86400.00000000  1.00000000E-05   86400.00000000       2.00000000       5.00000000
  213   86400.00000000  1.00000000E-05   86400.00000000       2.00000000       5.00000000
  214   86400.00000000  1.00000000E-05   86400.00000000       2.00000000       5.00000000
  215   86400.00000000  1.00000000E-05   86400.00000000       2.00000000       5.00000000
  216   86400.00000000  1.00000000E-05   86400.00000000       2.00000000       5.00000000
  217   86400.00000000  1.00000000E-05   86400.00000000       2.00000000       5.00000000
  218   86400.00000000  1.00000000E-05   86400.00000000       2.00000000       5.00000000
  219   86400.00000000  1.00000000E-05   86400.00000000       2.00000000       5.00000000
  220   86400.00000000  1.00000000E-05   86400.00000000       2.00000000       5.00000000
  221   86400.00000000  1.00000000E-05   86400.00000000       2.00000000       5.00000000
  222   86400.00000000  1.00000000E-05   86400.00000000       2.00000000       5.00000000
  223   86400.00000000  1.00000000E-05   86400.00000000       2.00000000       5.00000000
  224   86400.00000000  1.00000000E-05   86400.00000000       2.00000000       5.00000000
  225   86400.00000000  1.00000000E-05   86400.00000000       2.00000000       5.00000000
  226   86400.00000000  1.00000000E-05   86400.00000000       2.00000000       5.00000000
  227   86400.00000000  1.00000000E-05   86400.00000000       2.00000000       5.00000000
  228   86400.00000000  1.00000000E-05   86400.00000000       2.00000000       5.00000000
  229   86400.00000000  1.00000000E-05   86400.00000000       2.00000000       5.00000000
  230   86400.00000000  1.00000000E-05   86400.00000000       2.00000000       5.00000000
  231   86400.00000000  1.00000000E-05   86400.00000000       2.00000000       5.00000000
  232   86400.00000000  1.00000000E-05   86400.00000000       2.00000000       5.00000000
  233   86400.00000000  1.00000000E-05   86400.00000000       2.00000000       5.00000000
  234   86400.00000000  1.00000000E-05   86400.00000000       2.00000000       5.00000000
  235   86400.00000000  1.00000000E-05   86400.00000000       2.00000000       5.00000000
  236   86400.00000000  1.00000000E-05   86400.00000000       2.00000000       5.00000000
  237   86400.00000000  1.00000000E-05   86400.00000000       2.00000000       5.00000000
  238   86400.00000000  1.00000000E-05   86400.00000000       2.00000000       5.00000000
  239   86400.00000000  1.00000000E-05   86400.00000000       2.00000000       5.00000000
  240   86400.00000000  1.00000000E-05   86400.00000000       2.00000000       5.00000000
  241   86400.00000000  1.00000000E-05   86400.00000000       2.00000000       5.00000000
  242   86400.00000000  1.00000000E-05   86400.00000000       2.00000000       5.00000000
  243   86400.00000000  1.00000000E-05   86400.00000000       2.00000000       5.00000000
  244   86400.00000000  1.00000000E-05   86400.00000000       2.00000000       5.00000000
  245   86400.00000000  1.00000000E-05   86400.00000000       2.00000000       5.00000000
  246   86400.00000000  1.00000000E-05   86400.00000000       2.00000000       5.00000000
  247   86400.00000000  1.00000000E-05   86400.00000000       2.00000000       5.00000000
  248   86400.00000000  1.00000000E-05   86400.00000000       2.00000000       5.00000000
  249   86400.00000000  1.00000000E-05   86400.00000000       2.00000000       5.00000000
  250   86400.00000000  1.00000000E-05   86400.00000000       2.00000000       5.00000000
  251   86400.00000000  1.00000000E-05   86400.00000000       2.00000000       5.00000000
  252   86400.00000000  1.00000000E-05   86400.00000000       2.00000000       5.00000000
  253   86400.00000000  1.00000000E-05   86400.00000000       2.00000000       5.00000000
  254   86400.00000000  1.00000000E-05   86400.00000000       2.00000000       5.00000000
  255   86400.00000000  1.00000000E-05   86400.00000000       2.00000000       5.00000000
  256   86400.00000000  1.00000000E-05   86400.00000000       2.00000000       5.00000000
  257   86400.00000000  1.00000000E-05   86400.00000000       2.00000000       5.00000000
  258   86400.00000000  1.00000000E-05   86400.00000000       2.00000000       5.00000000
  259   86400.00000000  1.00000000E-05   86400.00000000       2.00000000       5.00000000
  260   86400.00000000  1.00000000E-05   86400.00000000       2.00000000       5.00000000
  261   86400.00000000  1.00000000E-05   86400.00000000       2.00000000       5.00000000
  262   86400.00000000  1.00000000E-05   86400.00000000       2.00000000       5.00000000
  263   86400.00000000  1.00000000E-05   86400.00000000       2.00000000       5.00000000
  264   86400.00000000  1.00000000E-05   86400.00000000       2.00000000       5.00000000
  265   86400.00000000  1.00000000E-05   86400.00000000       2.00000000       5.00000000
  266   86400.00000000  1.00000000E-05   86400.00000000       2.00000000       5.00000000
  267   86400.00000000  1.00000000E-05   86400.00000000       2.00000000       5.00000000
  268   86400.00000000  1.00000000E-05   86400.00000000       2.00000000       5.00000000
  269   86400.00000000  1.00000000E-05   86400.00000000       2.00000000       5.00000000
  270   86400.00000000  1.00000000E-05   86400.00000000       2.00000000       5.00000000
  271   86400.00000000  1.00000000E-05   86400.00000000       2.00000000       5.00000000
  272   86400.00000000  1.00000000E-05   86400.00000000       2.00000000       5.00000000
  273   86400.00000000  1.00000000E-05   86400.00000000       2.00000000       5.00000000
  274   86400.00000000  1.00000000E-05   86400.00000000       2.00000000       5.00000000
  275   86400.00000000  1.00000000E-05   86400.00000000       2.00000000       5.00000000
  276   86400.00000000  1.00000000E-05   86400.00000000       2.00000000       5.00000000
  277   86400.00000000  1.00000000E-05   86400.00000000       2.00000000       5.00000000
  278   86400.00000000  1.00000000E-05   86400.00000000       2.00000000       5.00000000
  279   86400.00000000  1.00000000E-05   86400.00000000       2.00000000       5.00000000
  280   86400.00000000  1.00000000E-05   86400.00000000       2.00000000       5.00000000
  281   86400.00000000  1.00000000E-05   86400.00000000       2.00000000       5.00000000
  282   86400.00000000  1.00000000E-05   86400.00000000       2.00000000       5.00000000
  283   86400.00000000  1.00000000E-05   86400.00000000       2.00000000       5.00000000
  284   86400.00000000  1.00000000E-05   86400.00000000       2.00000000       5.00000000
  285   86400.00000000  1.00000000E-05   86400.00000000       2.00000000       5.00000000
  286   86400.00000000  1.00000000E-05   86400.00000000       2.00000000       5.00000000
  287   86400.00000000  1.00000000E-05   86400.00000000       2.00000000       5.00000000
  288   86400.00000000  1.00000000E-05   86400.00000000       2.00000000       5.00000000
  289   86400.00000000  1.00000000E-05   86400.00000000       2.00000000       5.00000000
  290   86400.00000000  1.00000000E-05   86400.00000000       2.00000000       5.00000000
  291   86400.00000000  1.00000000E-05   86400.00000000       2.00000000       5.00000000
  292   86400.00000000  1.00000000E-05   86400.00000000       2.00000000       5.00000000
  293   86400.00000000  1.00000000E-05   86400.00000000       2.00000000       5.00000000
  294   86400.00000000  1.00000000E-05   86400.00000000       2.00000000       5.00000000
  295   86400.00000000  1.00000000E-05   86400.00000000       2.00000000       5.00000000
  296   86400.00000000  1.00000000E-05   86400.00000000       2.00000000       5.00000000
  297   86400.00000000  1.00000000E-05   86400.00000000       2.00000000       5.00000000
  298   86400.00000000  1.00000000E-05   86400.00000000       2.00000000       5.00000000
  299   86400.00000000  1.00000000E-05   86400.00000000       2.00000000       5.00000000
  300   86400.00000000  1.00000000E-05   86400.00000000       2.00000000       5.00000000
  301   86400.00000000  1.00000000E-05   86400.00000000       2.00000000       5.00000000
  302   86400.00000000  1.00000000E-05   86400.00000000       2.00000000       5.00000000
  303   86400.00000000  1.00000000E-05   86400.00000000       2.00000000       5.00000000
  304   86400.00000000  1.00000000E-05   86400.00000000       2.00000000       5.00000000
  305   86400.00000000  1.00000000E-05   86400.00000000       2.00000000       5.00000000
  306   86400.00000000  1.00000000E-05   86400.00000000       2.00000000       5.00000000
  307   86400.00000000  1.00000000E-05   86400.00000000       2.00000000       5.00000000
  308   86400.00000000  1.00000000E-05   86400.00000000       2.00000000       5.00000000
  309   86400.00000000  1.00000000E-05   86400.00000000       2.00000000       5.00000000
  310   86400.00000000  1.00000000E-05   86400.00000000       2.00000000       5.00000000
  311   86400.00000000  1.00000000E-05   86400.00000000       2.00000000       5.00000000
  312   86400.00000000  1.00000000E-05   86400.00000000       2.00000000       5.00000000
  313   86400.00000000  1.00000000E-05   86400.00000000       2.00000000       5.00000000
  314   86400.00000000  1.00000000E-05   86400.00000000       2.00000000       5.00000000
  315   86400.00000000  1.00000000E-05   86400.00000000       2.00000000       5.00000000
  316   86400.00000000  1.00000000E-05   86400.00000000       2.00000000       5.00000000
  317   86400.00000000  1.00000000E-05   86400.00000000       2.00000000       5.00000000
  318   86400.00000000  1.00000000E-05   86400.00000000       2.00000000       5.00000000
  319   86400.00000000  1.00000000E-05   86400.00000000       2.00000000       5.00000000
  320   86400.00000000  1.00000000E-05   86400.00000000       2.00000000       5.00000000
  321   86400.00000000  1.00000000E-05   86400.00000000       2.00000000       5.00000000
  322   86400.00000000  1.00000000E-05   86400.00000000       2.00000000       5.00000000
  323   86400.00000000  1.00000000E-05   86400.00000000       2.00000000       5.00000000
  324   86400.00000000  1.00000000E-05   86400.00000000       2.00000000       5.00000000
  325   86400.00000000  1.00000000E-05   86400.00000000       2.00000000       5.00000000
  326   86400.00000000  1.00000000E-05   86400.00000000       2.00000000       5.00000000
  327   86400.00000000  1.00000000E-05   86400.00000000       2.00000000       5.00000000
  328   86400.00000000  1.00000000E-05   86400.00000000       2.00000000       5.00000000
  329   86400.00000000  1.00000000E-05   86400.00000000       2.00000000       5.00000000
  330   86400.00000000  1.00000000E-05   86400.00000000       2.00000000       5.00000000
  331   86400.00000000  1.00000000E-05   86400.00000000       2.00000000       5.00000000
  332   86400.00000000  1.00000000E-05   86400.00000000       2.00000000       5.00000000
  333   86400.00000000  1.00000000E-05   86400.00000000       2.00000000       5.00000000
  334   86400.00000000  1.00000000E-05   86400.00000000       2.00000000       5.00000000