# File generated by Flopy version 3.3.4 on 06/25/2022 at 19:42:23.
BEGIN options
  auxiliary  rain_mult
  AUXMULTNAME  rain_mult
  SAVE_FLOWS
  TS6  FILEIN  modelo_Norte.rch.ts
END options

BEGIN dimensions
  MAXBOUND  14244
END dimensions

BEGIN period  1
    OPEN/CLOSE  'rch_0.txt'
END period  1

BEGIN period  2
    OPEN/CLOSE  'rch_1.txt'
END period  2

