# File generated by Flopy version 3.3.4 on 08/28/2021 at 19:54:39.
BEGIN options
  PRINT_INPUT
  PRINT_FLOWS
  SAVE_FLOWS
END options

BEGIN dimensions
  MAXBOUND  59
END dimensions

BEGIN period  1
  1 1 5     640.00000000
  1 2 4     661.00000000
  1 2 5     613.96862793
  1 2 6     611.29577637
  1 2 7     613.00000000
  1 2 8     615.00000000
  1 2 9     646.33636475
  1 3 4     627.00000000
  1 3 5     609.48382568
  1 3 9     619.61529541
  1 4 4     619.00000000
  1 4 5     611.29028320
  1 4 9     630.27539062
  1 4 10     692.71691895
  1 5 5     613.00000000
  1 5 9     653.57086182
  1 5 10     628.95739746
  1 6 4     626.00000000
  1 6 5     615.08898926
  1 6 10     629.00000000
  1 6 11     635.58886719
  1 6 12     641.76385498
  1 6 13     646.76336670
  1 6 14     656.53277588
  1 7 4     623.00000000
  1 7 5     613.00000000
  1 7 14     649.00000000
  1 7 15     643.56732178
  1 8 4     628.00000000
  1 8 5     637.00000000
  1 8 15     645.00000000
  1 8 16     652.62451172
  1 8 17     659.37884521
  1 8 18     680.07727051
  1 8 19     686.35461426
  1 8 20     669.90875244
  1 8 21     685.90850830
  1 9 3     630.00000000
  1 9 4     615.00000000
  1 9 5     655.13641357
  1 9 17     672.66723633
  1 9 18     671.06878662
  1 9 19     675.52203369
  1 9 20     689.06054688
  1 9 21     692.35961914
  1 9 22     659.57324219
  1 9 23     655.00000000
  1 9 24     656.94573975
  1 9 25     659.32794189
  1 9 26     698.00000000
  1 10 1     637.00000000
  1 10 2     630.00000000
  1 10 3     621.00000000
  1 10 26     665.00000000
  1 10 27     709.00000000
  1 11 1     636.00000000
  1 11 2     621.00000000
  1 11 27     665.85595703
  1 12 1     625.06140137
END period  1

