# File generated by Flopy version 3.3.4 on 08/28/2021 at 11:37:42.
BEGIN griddata
  strt  LAYERED
    INTERNAL  FACTOR  1.0
         701.00000000     661.00000000     623.00000000     613.00000000     611.00000000     612.00000000     611.00000000     610.00000000     613.00000000     612.00000000     638.00000000     633.00000000     625.00000000     634.00000000     644.00000000     634.00000000     627.00000000     623.00000000     635.00000000     634.00000000     638.00000000     644.00000000     647.00000000     651.00000000     685.00000000     706.00000000     722.00000000     746.00000000     765.00000000     770.00000000     770.00000000     776.00000000     785.00000000     782.00000000     774.00000000     766.00000000     757.00000000     760.00000000     760.00000000     761.00000000     760.00000000     754.00000000     752.00000000     755.00000000     764.00000000     779.00000000     789.00000000     790.00000000     797.00000000     809.00000000     817.00000000     826.00000000     827.00000000     831.00000000     837.00000000     842.00000000     853.00000000     861.00000000     862.00000000     866.00000000     842.00000000     813.00000000     808.00000000     823.00000000     840.00000000     871.00000000     915.00000000     954.00000000
         701.00000000     661.00000000     623.00000000     613.00000000     611.00000000     612.00000000     611.00000000     610.00000000     613.00000000     612.00000000     638.00000000     633.00000000     625.00000000     634.00000000     644.00000000     634.00000000     627.00000000     623.00000000     635.00000000     634.00000000     638.00000000     644.00000000     647.00000000     651.00000000     685.00000000     706.00000000     722.00000000     746.00000000     765.00000000     770.00000000     770.00000000     776.00000000     785.00000000     782.00000000     774.00000000     766.00000000     757.00000000     760.00000000     760.00000000     761.00000000     760.00000000     754.00000000     752.00000000     755.00000000     764.00000000     779.00000000     789.00000000     790.00000000     797.00000000     809.00000000     817.00000000     826.00000000     827.00000000     831.00000000     837.00000000     842.00000000     853.00000000     861.00000000     862.00000000     866.00000000     842.00000000     813.00000000     808.00000000     823.00000000     840.00000000     871.00000000     915.00000000     954.00000000
         701.00000000     661.00000000     623.00000000     613.00000000     611.00000000     612.00000000     611.00000000     610.00000000     613.00000000     612.00000000     638.00000000     633.00000000     625.00000000     634.00000000     644.00000000     634.00000000     627.00000000     623.00000000     635.00000000     634.00000000     638.00000000     644.00000000     647.00000000     651.00000000     685.00000000     706.00000000     722.00000000     746.00000000     765.00000000     770.00000000     770.00000000     776.00000000     785.00000000     782.00000000     774.00000000     766.00000000     757.00000000     760.00000000     760.00000000     761.00000000     760.00000000     754.00000000     752.00000000     755.00000000     764.00000000     779.00000000     789.00000000     790.00000000     797.00000000     809.00000000     817.00000000     826.00000000     827.00000000     831.00000000     837.00000000     842.00000000     853.00000000     861.00000000     862.00000000     866.00000000     842.00000000     813.00000000     808.00000000     823.00000000     840.00000000     871.00000000     915.00000000     954.00000000
         701.00000000     661.00000000     623.00000000     613.00000000     611.00000000     612.00000000     611.00000000     610.00000000     613.00000000     612.00000000     638.00000000     633.00000000     625.00000000     634.00000000     644.00000000     634.00000000     627.00000000     623.00000000     635.00000000     634.00000000     638.00000000     644.00000000     647.00000000     651.00000000     685.00000000     706.00000000     722.00000000     746.00000000     765.00000000     770.00000000     770.00000000     776.00000000     785.00000000     782.00000000     774.00000000     766.00000000     757.00000000     760.00000000     760.00000000     761.00000000     760.00000000     754.00000000     752.00000000     755.00000000     764.00000000     779.00000000     789.00000000     790.00000000     797.00000000     809.00000000     817.00000000     826.00000000     827.00000000     831.00000000     837.00000000     842.00000000     853.00000000     861.00000000     862.00000000     866.00000000     842.00000000     813.00000000     808.00000000     823.00000000     840.00000000     871.00000000     915.00000000     954.00000000
         701.00000000     661.00000000     623.00000000     613.00000000     611.00000000     612.00000000     611.00000000     610.00000000     613.00000000     612.00000000     638.00000000     633.00000000     625.00000000     634.00000000     644.00000000     634.00000000     627.00000000     623.00000000     635.00000000     634.00000000     638.00000000     644.00000000     647.00000000     651.00000000     685.00000000     706.00000000     722.00000000     746.00000000     765.00000000     770.00000000     770.00000000     776.00000000     785.00000000     782.00000000     774.00000000     766.00000000     757.00000000     760.00000000     760.00000000     761.00000000     760.00000000     754.00000000     752.00000000     755.00000000     764.00000000     779.00000000     789.00000000     790.00000000     797.00000000     809.00000000     817.00000000     826.00000000     827.00000000     831.00000000     837.00000000     842.00000000     853.00000000     861.00000000     862.00000000     866.00000000     842.00000000     813.00000000     808.00000000     823.00000000     840.00000000     871.00000000     915.00000000     954.00000000
         701.00000000     661.00000000     623.00000000     613.00000000     611.00000000     612.00000000     611.00000000     610.00000000     613.00000000     612.00000000     638.00000000     633.00000000     625.00000000     634.00000000     644.00000000     634.00000000     627.00000000     623.00000000     635.00000000     634.00000000     638.00000000     644.00000000     647.00000000     651.00000000     685.00000000     706.00000000     722.00000000     746.00000000     765.00000000     770.00000000     770.00000000     776.00000000     785.00000000     782.00000000     774.00000000     766.00000000     757.00000000     760.00000000     760.00000000     761.00000000     760.00000000     754.00000000     752.00000000     755.00000000     764.00000000     779.00000000     789.00000000     790.00000000     797.00000000     809.00000000     817.00000000     826.00000000     827.00000000     831.00000000     837.00000000     842.00000000     853.00000000     861.00000000     862.00000000     866.00000000     842.00000000     813.00000000     808.00000000     823.00000000     840.00000000     871.00000000     915.00000000     954.00000000
         701.00000000     661.00000000     623.00000000     613.00000000     611.00000000     612.00000000     611.00000000     610.00000000     613.00000000     612.00000000     638.00000000     633.00000000     625.00000000     634.00000000     644.00000000     634.00000000     627.00000000     623.00000000     635.00000000     634.00000000     638.00000000     644.00000000     647.00000000     651.00000000     685.00000000     706.00000000     722.00000000     746.00000000     765.00000000     770.00000000     770.00000000     776.00000000     785.00000000     782.00000000     774.00000000     766.00000000     757.00000000     760.00000000     760.00000000     761.00000000     760.00000000     754.00000000     752.00000000     755.00000000     764.00000000     779.00000000     789.00000000     790.00000000     797.00000000     809.00000000     817.00000000     826.00000000     827.00000000     831.00000000     837.00000000     842.00000000     853.00000000     861.00000000     862.00000000     866.00000000     842.00000000     813.00000000     808.00000000     823.00000000     840.00000000     871.00000000     915.00000000     954.00000000
         701.00000000     661.00000000     623.00000000     613.00000000     611.00000000     612.00000000     611.00000000     610.00000000     613.00000000     612.00000000     638.00000000     633.00000000     625.00000000     634.00000000     644.00000000     634.00000000     627.00000000     623.00000000     635.00000000     634.00000000     638.00000000     644.00000000     647.00000000     651.00000000     685.00000000     706.00000000     722.00000000     746.00000000     765.00000000     770.00000000     770.00000000     776.00000000     785.00000000     782.00000000     774.00000000     766.00000000     757.00000000     760.00000000     760.00000000     761.00000000     760.00000000     754.00000000     752.00000000     755.00000000     764.00000000     779.00000000     789.00000000     790.00000000     797.00000000     809.00000000     817.00000000     826.00000000     827.00000000     831.00000000     837.00000000     842.00000000     853.00000000     861.00000000     862.00000000     866.00000000     842.00000000     813.00000000     808.00000000     823.00000000     840.00000000     871.00000000     915.00000000     954.00000000
         701.00000000     661.00000000     623.00000000     613.00000000     611.00000000     612.00000000     611.00000000     610.00000000     613.00000000     612.00000000     638.00000000     633.00000000     625.00000000     634.00000000     644.00000000     634.00000000     627.00000000     623.00000000     635.00000000     634.00000000     638.00000000     644.00000000     647.00000000     651.00000000     685.00000000     706.00000000     722.00000000     746.00000000     765.00000000     770.00000000     770.00000000     776.00000000     785.00000000     782.00000000     774.00000000     766.00000000     757.00000000     760.00000000     760.00000000     761.00000000     760.00000000     754.00000000     752.00000000     755.00000000     764.00000000     779.00000000     789.00000000     790.00000000     797.00000000     809.00000000     817.00000000     826.00000000     827.00000000     831.00000000     837.00000000     842.00000000     853.00000000     861.00000000     862.00000000     866.00000000     842.00000000     813.00000000     808.00000000     823.00000000     840.00000000     871.00000000     915.00000000     954.00000000
         701.00000000     661.00000000     623.00000000     613.00000000     611.00000000     612.00000000     611.00000000     610.00000000     613.00000000     612.00000000     638.00000000     633.00000000     625.00000000     634.00000000     644.00000000     634.00000000     627.00000000     623.00000000     635.00000000     634.00000000     638.00000000     644.00000000     647.00000000     651.00000000     685.00000000     706.00000000     722.00000000     746.00000000     765.00000000     770.00000000     770.00000000     776.00000000     785.00000000     782.00000000     774.00000000     766.00000000     757.00000000     760.00000000     760.00000000     761.00000000     760.00000000     754.00000000     752.00000000     755.00000000     764.00000000     779.00000000     789.00000000     790.00000000     797.00000000     809.00000000     817.00000000     826.00000000     827.00000000     831.00000000     837.00000000     842.00000000     853.00000000     861.00000000     862.00000000     866.00000000     842.00000000     813.00000000     808.00000000     823.00000000     840.00000000     871.00000000     915.00000000     954.00000000
         701.00000000     661.00000000     623.00000000     613.00000000     611.00000000     612.00000000     611.00000000     610.00000000     613.00000000     612.00000000     638.00000000     633.00000000     625.00000000     634.00000000     644.00000000     634.00000000     627.00000000     623.00000000     635.00000000     634.00000000     638.00000000     644.00000000     647.00000000     651.00000000     685.00000000     706.00000000     722.00000000     746.00000000     765.00000000     770.00000000     770.00000000     776.00000000     785.00000000     782.00000000     774.00000000     766.00000000     757.00000000     760.00000000     760.00000000     761.00000000     760.00000000     754.00000000     752.00000000     755.00000000     764.00000000     779.00000000     789.00000000     790.00000000     797.00000000     809.00000000     817.00000000     826.00000000     827.00000000     831.00000000     837.00000000     842.00000000     853.00000000     861.00000000     862.00000000     866.00000000     842.00000000     813.00000000     808.00000000     823.00000000     840.00000000     871.00000000     915.00000000     954.00000000
         701.00000000     661.00000000     623.00000000     613.00000000     611.00000000     612.00000000     611.00000000     610.00000000     613.00000000     612.00000000     638.00000000     633.00000000     625.00000000     634.00000000     644.00000000     634.00000000     627.00000000     623.00000000     635.00000000     634.00000000     638.00000000     644.00000000     647.00000000     651.00000000     685.00000000     706.00000000     722.00000000     746.00000000     765.00000000     770.00000000     770.00000000     776.00000000     785.00000000     782.00000000     774.00000000     766.00000000     757.00000000     760.00000000     760.00000000     761.00000000     760.00000000     754.00000000     752.00000000     755.00000000     764.00000000     779.00000000     789.00000000     790.00000000     797.00000000     809.00000000     817.00000000     826.00000000     827.00000000     831.00000000     837.00000000     842.00000000     853.00000000     861.00000000     862.00000000     866.00000000     842.00000000     813.00000000     808.00000000     823.00000000     840.00000000     871.00000000     915.00000000     954.00000000
         701.00000000     661.00000000     623.00000000     613.00000000     611.00000000     612.00000000     611.00000000     610.00000000     613.00000000     612.00000000     638.00000000     633.00000000     625.00000000     634.00000000     644.00000000     634.00000000     627.00000000     623.00000000     635.00000000     634.00000000     638.00000000     644.00000000     647.00000000     651.00000000     685.00000000     706.00000000     722.00000000     746.00000000     765.00000000     770.00000000     770.00000000     776.00000000     785.00000000     782.00000000     774.00000000     766.00000000     757.00000000     760.00000000     760.00000000     761.00000000     760.00000000     754.00000000     752.00000000     755.00000000     764.00000000     779.00000000     789.00000000     790.00000000     797.00000000     809.00000000     817.00000000     826.00000000     827.00000000     831.00000000     837.00000000     842.00000000     853.00000000     861.00000000     862.00000000     866.00000000     842.00000000     813.00000000     808.00000000     823.00000000     840.00000000     871.00000000     915.00000000     954.00000000
         701.00000000     661.00000000     623.00000000     613.00000000     611.00000000     612.00000000     611.00000000     610.00000000     613.00000000     612.00000000     638.00000000     633.00000000     625.00000000     634.00000000     644.00000000     634.00000000     627.00000000     623.00000000     635.00000000     634.00000000     638.00000000     644.00000000     647.00000000     651.00000000     685.00000000     706.00000000     722.00000000     746.00000000     765.00000000     770.00000000     770.00000000     776.00000000     785.00000000     782.00000000     774.00000000     766.00000000     757.00000000     760.00000000     760.00000000     761.00000000     760.00000000     754.00000000     752.00000000     755.00000000     764.00000000     779.00000000     789.00000000     790.00000000     797.00000000     809.00000000     817.00000000     826.00000000     827.00000000     831.00000000     837.00000000     842.00000000     853.00000000     861.00000000     862.00000000     866.00000000     842.00000000     813.00000000     808.00000000     823.00000000     840.00000000     871.00000000     915.00000000     954.00000000
         701.00000000     661.00000000     623.00000000     613.00000000     611.00000000     612.00000000     611.00000000     610.00000000     613.00000000     612.00000000     638.00000000     633.00000000     625.00000000     634.00000000     644.00000000     634.00000000     627.00000000     623.00000000     635.00000000     634.00000000     638.00000000     644.00000000     647.00000000     651.00000000     685.00000000     706.00000000     722.00000000     746.00000000     765.00000000     770.00000000     770.00000000     776.00000000     785.00000000     782.00000000     774.00000000     766.00000000     757.00000000     760.00000000     760.00000000     761.00000000     760.00000000     754.00000000     752.00000000     755.00000000     764.00000000     779.00000000     789.00000000     790.00000000     797.00000000     809.00000000     817.00000000     826.00000000     827.00000000     831.00000000     837.00000000     842.00000000     853.00000000     861.00000000     862.00000000     866.00000000     842.00000000     813.00000000     808.00000000     823.00000000     840.00000000     871.00000000     915.00000000     954.00000000
         701.00000000     661.00000000     623.00000000     613.00000000     611.00000000     612.00000000     611.00000000     610.00000000     613.00000000     612.00000000     638.00000000     633.00000000     625.00000000     634.00000000     644.00000000     634.00000000     627.00000000     623.00000000     635.00000000     634.00000000     638.00000000     644.00000000     647.00000000     651.00000000     685.00000000     706.00000000     722.00000000     746.00000000     765.00000000     770.00000000     770.00000000     776.00000000     785.00000000     782.00000000     774.00000000     766.00000000     757.00000000     760.00000000     760.00000000     761.00000000     760.00000000     754.00000000     752.00000000     755.00000000     764.00000000     779.00000000     789.00000000     790.00000000     797.00000000     809.00000000     817.00000000     826.00000000     827.00000000     831.00000000     837.00000000     842.00000000     853.00000000     861.00000000     862.00000000     866.00000000     842.00000000     813.00000000     808.00000000     823.00000000     840.00000000     871.00000000     915.00000000     954.00000000
         701.00000000     661.00000000     623.00000000     613.00000000     611.00000000     612.00000000     611.00000000     610.00000000     613.00000000     612.00000000     638.00000000     633.00000000     625.00000000     634.00000000     644.00000000     634.00000000     627.00000000     623.00000000     635.00000000     634.00000000     638.00000000     644.00000000     647.00000000     651.00000000     685.00000000     706.00000000     722.00000000     746.00000000     765.00000000     770.00000000     770.00000000     776.00000000     785.00000000     782.00000000     774.00000000     766.00000000     757.00000000     760.00000000     760.00000000     761.00000000     760.00000000     754.00000000     752.00000000     755.00000000     764.00000000     779.00000000     789.00000000     790.00000000     797.00000000     809.00000000     817.00000000     826.00000000     827.00000000     831.00000000     837.00000000     842.00000000     853.00000000     861.00000000     862.00000000     866.00000000     842.00000000     813.00000000     808.00000000     823.00000000     840.00000000     871.00000000     915.00000000     954.00000000
         701.00000000     661.00000000     623.00000000     613.00000000     611.00000000     612.00000000     611.00000000     610.00000000     613.00000000     612.00000000     638.00000000     633.00000000     625.00000000     634.00000000     644.00000000     634.00000000     627.00000000     623.00000000     635.00000000     634.00000000     638.00000000     644.00000000     647.00000000     651.00000000     685.00000000     706.00000000     722.00000000     746.00000000     765.00000000     770.00000000     770.00000000     776.00000000     785.00000000     782.00000000     774.00000000     766.00000000     757.00000000     760.00000000     760.00000000     761.00000000     760.00000000     754.00000000     752.00000000     755.00000000     764.00000000     779.00000000     789.00000000     790.00000000     797.00000000     809.00000000     817.00000000     826.00000000     827.00000000     831.00000000     837.00000000     842.00000000     853.00000000     861.00000000     862.00000000     866.00000000     842.00000000     813.00000000     808.00000000     823.00000000     840.00000000     871.00000000     915.00000000     954.00000000
         701.00000000     661.00000000     623.00000000     613.00000000     611.00000000     612.00000000     611.00000000     610.00000000     613.00000000     612.00000000     638.00000000     633.00000000     625.00000000     634.00000000     644.00000000     634.00000000     627.00000000     623.00000000     635.00000000     634.00000000     638.00000000     644.00000000     647.00000000     651.00000000     685.00000000     706.00000000     722.00000000     746.00000000     765.00000000     770.00000000     770.00000000     776.00000000     785.00000000     782.00000000     774.00000000     766.00000000     757.00000000     760.00000000     760.00000000     761.00000000     760.00000000     754.00000000     752.00000000     755.00000000     764.00000000     779.00000000     789.00000000     790.00000000     797.00000000     809.00000000     817.00000000     826.00000000     827.00000000     831.00000000     837.00000000     842.00000000     853.00000000     861.00000000     862.00000000     866.00000000     842.00000000     813.00000000     808.00000000     823.00000000     840.00000000     871.00000000     915.00000000     954.00000000
         701.00000000     661.00000000     623.00000000     613.00000000     611.00000000     612.00000000     611.00000000     610.00000000     613.00000000     612.00000000     638.00000000     633.00000000     625.00000000     634.00000000     644.00000000     634.00000000     627.00000000     623.00000000     635.00000000     634.00000000     638.00000000     644.00000000     647.00000000     651.00000000     685.00000000     706.00000000     722.00000000     746.00000000     765.00000000     770.00000000     770.00000000     776.00000000     785.00000000     782.00000000     774.00000000     766.00000000     757.00000000     760.00000000     760.00000000     761.00000000     760.00000000     754.00000000     752.00000000     755.00000000     764.00000000     779.00000000     789.00000000     790.00000000     797.00000000     809.00000000     817.00000000     826.00000000     827.00000000     831.00000000     837.00000000     842.00000000     853.00000000     861.00000000     862.00000000     866.00000000     842.00000000     813.00000000     808.00000000     823.00000000     840.00000000     871.00000000     915.00000000     954.00000000
         701.00000000     661.00000000     623.00000000     613.00000000     611.00000000     612.00000000     611.00000000     610.00000000     613.00000000     612.00000000     638.00000000     633.00000000     625.00000000     634.00000000     644.00000000     634.00000000     627.00000000     623.00000000     635.00000000     634.00000000     638.00000000     644.00000000     647.00000000     651.00000000     685.00000000     706.00000000     722.00000000     746.00000000     765.00000000     770.00000000     770.00000000     776.00000000     785.00000000     782.00000000     774.00000000     766.00000000     757.00000000     760.00000000     760.00000000     761.00000000     760.00000000     754.00000000     752.00000000     755.00000000     764.00000000     779.00000000     789.00000000     790.00000000     797.00000000     809.00000000     817.00000000     826.00000000     827.00000000     831.00000000     837.00000000     842.00000000     853.00000000     861.00000000     862.00000000     866.00000000     842.00000000     813.00000000     808.00000000     823.00000000     840.00000000     871.00000000     915.00000000     954.00000000
         701.00000000     661.00000000     623.00000000     613.00000000     611.00000000     612.00000000     611.00000000     610.00000000     613.00000000     612.00000000     638.00000000     633.00000000     625.00000000     634.00000000     644.00000000     634.00000000     627.00000000     623.00000000     635.00000000     634.00000000     638.00000000     644.00000000     647.00000000     651.00000000     685.00000000     706.00000000     722.00000000     746.00000000     765.00000000     770.00000000     770.00000000     776.00000000     785.00000000     782.00000000     774.00000000     766.00000000     757.00000000     760.00000000     760.00000000     761.00000000     760.00000000     754.00000000     752.00000000     755.00000000     764.00000000     779.00000000     789.00000000     790.00000000     797.00000000     809.00000000     817.00000000     826.00000000     827.00000000     831.00000000     837.00000000     842.00000000     853.00000000     861.00000000     862.00000000     866.00000000     842.00000000     813.00000000     808.00000000     823.00000000     840.00000000     871.00000000     915.00000000     954.00000000
         701.00000000     661.00000000     623.00000000     613.00000000     611.00000000     612.00000000     611.00000000     610.00000000     613.00000000     612.00000000     638.00000000     633.00000000     625.00000000     634.00000000     644.00000000     634.00000000     627.00000000     623.00000000     635.00000000     634.00000000     638.00000000     644.00000000     647.00000000     651.00000000     685.00000000     706.00000000     722.00000000     746.00000000     765.00000000     770.00000000     770.00000000     776.00000000     785.00000000     782.00000000     774.00000000     766.00000000     757.00000000     760.00000000     760.00000000     761.00000000     760.00000000     754.00000000     752.00000000     755.00000000     764.00000000     779.00000000     789.00000000     790.00000000     797.00000000     809.00000000     817.00000000     826.00000000     827.00000000     831.00000000     837.00000000     842.00000000     853.00000000     861.00000000     862.00000000     866.00000000     842.00000000     813.00000000     808.00000000     823.00000000     840.00000000     871.00000000     915.00000000     954.00000000
         701.00000000     661.00000000     623.00000000     613.00000000     611.00000000     612.00000000     611.00000000     610.00000000     613.00000000     612.00000000     638.00000000     633.00000000     625.00000000     634.00000000     644.00000000     634.00000000     627.00000000     623.00000000     635.00000000     634.00000000     638.00000000     644.00000000     647.00000000     651.00000000     685.00000000     706.00000000     722.00000000     746.00000000     765.00000000     770.00000000     770.00000000     776.00000000     785.00000000     782.00000000     774.00000000     766.00000000     757.00000000     760.00000000     760.00000000     761.00000000     760.00000000     754.00000000     752.00000000     755.00000000     764.00000000     779.00000000     789.00000000     790.00000000     797.00000000     809.00000000     817.00000000     826.00000000     827.00000000     831.00000000     837.00000000     842.00000000     853.00000000     861.00000000     862.00000000     866.00000000     842.00000000     813.00000000     808.00000000     823.00000000     840.00000000     871.00000000     915.00000000     954.00000000
         701.00000000     661.00000000     623.00000000     613.00000000     611.00000000     612.00000000     611.00000000     610.00000000     613.00000000     612.00000000     638.00000000     633.00000000     625.00000000     634.00000000     644.00000000     634.00000000     627.00000000     623.00000000     635.00000000     634.00000000     638.00000000     644.00000000     647.00000000     651.00000000     685.00000000     706.00000000     722.00000000     746.00000000     765.00000000     770.00000000     770.00000000     776.00000000     785.00000000     782.00000000     774.00000000     766.00000000     757.00000000     760.00000000     760.00000000     761.00000000     760.00000000     754.00000000     752.00000000     755.00000000     764.00000000     779.00000000     789.00000000     790.00000000     797.00000000     809.00000000     817.00000000     826.00000000     827.00000000     831.00000000     837.00000000     842.00000000     853.00000000     861.00000000     862.00000000     866.00000000     842.00000000     813.00000000     808.00000000     823.00000000     840.00000000     871.00000000     915.00000000     954.00000000