# File generated by Flopy version 3.3.4 on 11/27/2021 at 23:24:34.
BEGIN options
  BOUNDNAMES
  PRINT_INPUT
  PRINT_FLOWS
  SAVE_FLOWS
  OBS6  FILEIN  modelo_Norte_gal.drn.obs
END options

BEGIN dimensions
  MAXBOUND  61
END dimensions

BEGIN period  1187
  1 44 40     748.00000000  4.50039401E-07  gal_flow
END period  1187

BEGIN period  1191
  1 44 40     748.00000000  4.50039401E-07  gal_flow
  1 44 41     748.00059989  7.56155222E-05  gal_flow
END period  1191

BEGIN period  1196
  1 44 40     748.00000000  4.50039401E-07  gal_flow
  1 44 41     748.00059989  7.56155222E-05  gal_flow
  1 44 42     748.10139302  7.56155222E-05  gal_flow
END period  1196

BEGIN period  1200
  1 44 40     748.00000000  4.50039401E-07  gal_flow
  1 44 41     748.00059989  7.56155222E-05  gal_flow
  1 44 42     748.10139302  7.56155222E-05  gal_flow
  1 44 43     748.20218615  7.56155222E-05  gal_flow
END period  1200

BEGIN period  1203
  1 44 40     748.00000000  4.50039401E-07  gal_flow
  1 44 41     748.00059989  7.56155222E-05  gal_flow
  1 44 42     748.10139302  7.56155222E-05  gal_flow
  1 44 43     748.20218615  7.56155222E-05  gal_flow
  2 44 44     748.30297928  4.05160706E-05  gal_flow
END period  1203

BEGIN period  1205
  1 44 40     748.00000000  4.50039401E-07  gal_flow
  1 44 41     748.00059989  7.56155222E-05  gal_flow
  1 44 42     748.10139302  7.56155222E-05  gal_flow
  1 44 43     748.20218615  7.56155222E-05  gal_flow
  2 44 44     748.30297928  4.05160706E-05  gal_flow
  1 43 44     748.35698594  3.50994516E-05  gal_flow
END period  1205

BEGIN period  1209
  1 44 40     748.00000000  4.50039401E-07  gal_flow
  1 44 41     748.00059989  7.56155222E-05  gal_flow
  1 44 42     748.10139302  7.56155222E-05  gal_flow
  1 44 43     748.20218615  7.56155222E-05  gal_flow
  2 44 44     748.30297928  4.05160706E-05  gal_flow
  1 43 44     748.35698594  3.50994516E-05  gal_flow
  2 43 45     748.40377242  7.56155222E-05  gal_flow
END period  1209

BEGIN period  1214
  1 44 40     748.00000000  4.50039401E-07  gal_flow
  1 44 41     748.00059989  7.56155222E-05  gal_flow
  1 44 42     748.10139302  7.56155222E-05  gal_flow
  1 44 43     748.20218615  7.56155222E-05  gal_flow
  2 44 44     748.30297928  4.05160706E-05  gal_flow
  1 43 44     748.35698594  3.50994516E-05  gal_flow
  2 43 45     748.40377242  7.56155222E-05  gal_flow
  2 43 46     748.50456555  7.56155222E-05  gal_flow
END period  1214

BEGIN period  1219
  1 44 40     748.00000000  4.50039401E-07  gal_flow
  1 44 41     748.00059989  7.56155222E-05  gal_flow
  1 44 42     748.10139302  7.56155222E-05  gal_flow
  1 44 43     748.20218615  7.56155222E-05  gal_flow
  2 44 44     748.30297928  4.05160706E-05  gal_flow
  1 43 44     748.35698594  3.50994516E-05  gal_flow
  2 43 45     748.40377242  7.56155222E-05  gal_flow
  2 43 46     748.50456555  7.56155222E-05  gal_flow
  2 43 47     748.60535868  7.56155222E-05  gal_flow
END period  1219

BEGIN period  1223
  1 44 40     748.00000000  4.50039401E-07  gal_flow
  1 44 41     748.00059989  7.56155222E-05  gal_flow
  1 44 42     748.10139302  7.56155222E-05  gal_flow
  1 44 43     748.20218615  7.56155222E-05  gal_flow
  2 44 44     748.30297928  4.05160706E-05  gal_flow
  1 43 44     748.35698594  3.50994516E-05  gal_flow
  2 43 45     748.40377242  7.56155222E-05  gal_flow
  2 43 46     748.50456555  7.56155222E-05  gal_flow
  2 43 47     748.60535868  7.56155222E-05  gal_flow
  2 43 48     748.70615181  7.56155222E-05  gal_flow
END period  1223

BEGIN period  1228
  1 44 40     748.00000000  4.50039401E-07  gal_flow
  1 44 41     748.00059989  7.56155222E-05  gal_flow
  1 44 42     748.10139302  7.56155222E-05  gal_flow
  1 44 43     748.20218615  7.56155222E-05  gal_flow
  2 44 44     748.30297928  4.05160706E-05  gal_flow
  1 43 44     748.35698594  3.50994516E-05  gal_flow
  2 43 45     748.40377242  7.56155222E-05  gal_flow
  2 43 46     748.50456555  7.56155222E-05  gal_flow
  2 43 47     748.60535868  7.56155222E-05  gal_flow
  2 43 48     748.70615181  7.56155222E-05  gal_flow
  2 43 49     748.80694495  7.56155222E-05  gal_flow
END period  1228

BEGIN period  1232
  1 44 40     748.00000000  4.50039401E-07  gal_flow
  1 44 41     748.00059989  7.56155222E-05  gal_flow
  1 44 42     748.10139302  7.56155222E-05  gal_flow
  1 44 43     748.20218615  7.56155222E-05  gal_flow
  2 44 44     748.30297928  4.05160706E-05  gal_flow
  1 43 44     748.35698594  3.50994516E-05  gal_flow
  2 43 45     748.40377242  7.56155222E-05  gal_flow
  2 43 46     748.50456555  7.56155222E-05  gal_flow
  2 43 47     748.60535868  7.56155222E-05  gal_flow
  2 43 48     748.70615181  7.56155222E-05  gal_flow
  2 43 49     748.80694495  7.56155222E-05  gal_flow
  2 43 50     748.90773808  7.56155222E-05  gal_flow
END period  1232

BEGIN period  1237
  1 44 40     748.00000000  4.50039401E-07  gal_flow
  1 44 41     748.00059989  7.56155222E-05  gal_flow
  1 44 42     748.10139302  7.56155222E-05  gal_flow
  1 44 43     748.20218615  7.56155222E-05  gal_flow
  2 44 44     748.30297928  4.05160706E-05  gal_flow
  1 43 44     748.35698594  3.50994516E-05  gal_flow
  2 43 45     748.40377242  7.56155222E-05  gal_flow
  2 43 46     748.50456555  7.56155222E-05  gal_flow
  2 43 47     748.60535868  7.56155222E-05  gal_flow
  2 43 48     748.70615181  7.56155222E-05  gal_flow
  2 43 49     748.80694495  7.56155222E-05  gal_flow
  2 43 50     748.90773808  7.56155222E-05  gal_flow
  2 43 51     749.00853121  7.56155222E-05  gal_flow
END period  1237

BEGIN period  1239
  1 44 40     748.00000000  4.50039401E-07  gal_flow
  1 44 41     748.00059989  7.56155222E-05  gal_flow
  1 44 42     748.10139302  7.56155222E-05  gal_flow
  1 44 43     748.20218615  7.56155222E-05  gal_flow
  2 44 44     748.30297928  4.05160706E-05  gal_flow
  1 43 44     748.35698594  3.50994516E-05  gal_flow
  2 43 45     748.40377242  7.56155222E-05  gal_flow
  2 43 46     748.50456555  7.56155222E-05  gal_flow
  2 43 47     748.60535868  7.56155222E-05  gal_flow
  2 43 48     748.70615181  7.56155222E-05  gal_flow
  2 43 49     748.80694495  7.56155222E-05  gal_flow
  2 43 50     748.90773808  7.56155222E-05  gal_flow
  2 43 51     749.00853121  7.56155222E-05  gal_flow
  2 43 52     749.10932434  3.47808098E-05  gal_flow
END period  1239

BEGIN period  1242
  1 44 40     748.00000000  4.50039401E-07  gal_flow
  1 44 41     748.00059989  7.56155222E-05  gal_flow
  1 44 42     748.10139302  7.56155222E-05  gal_flow
  1 44 43     748.20218615  7.56155222E-05  gal_flow
  2 44 44     748.30297928  4.05160706E-05  gal_flow
  1 43 44     748.35698594  3.50994516E-05  gal_flow
  2 43 45     748.40377242  7.56155222E-05  gal_flow
  2 43 46     748.50456555  7.56155222E-05  gal_flow
  2 43 47     748.60535868  7.56155222E-05  gal_flow
  2 43 48     748.70615181  7.56155222E-05  gal_flow
  2 43 49     748.80694495  7.56155222E-05  gal_flow
  2 43 50     748.90773808  7.56155222E-05  gal_flow
  2 43 51     749.00853121  7.56155222E-05  gal_flow
  2 43 52     749.10932434  3.47808098E-05  gal_flow
  2 42 52     749.15568608  4.08347124E-05  gal_flow
END period  1242

BEGIN period  1246
  1 44 40     748.00000000  4.50039401E-07  gal_flow
  1 44 41     748.00059989  7.56155222E-05  gal_flow
  1 44 42     748.10139302  7.56155222E-05  gal_flow
  1 44 43     748.20218615  7.56155222E-05  gal_flow
  2 44 44     748.30297928  4.05160706E-05  gal_flow
  1 43 44     748.35698594  3.50994516E-05  gal_flow
  2 43 45     748.40377242  7.56155222E-05  gal_flow
  2 43 46     748.50456555  7.56155222E-05  gal_flow
  2 43 47     748.60535868  7.56155222E-05  gal_flow
  2 43 48     748.70615181  7.56155222E-05  gal_flow
  2 43 49     748.80694495  7.56155222E-05  gal_flow
  2 43 50     748.90773808  7.56155222E-05  gal_flow
  2 43 51     749.00853121  7.56155222E-05  gal_flow
  2 43 52     749.10932434  3.47808098E-05  gal_flow
  2 42 52     749.15568608  4.08347124E-05  gal_flow
  2 42 53     749.21011747  7.56155222E-05  gal_flow
END period  1246

BEGIN period  1251
  1 44 40     748.00000000  4.50039401E-07  gal_flow
  1 44 41     748.00059989  7.56155222E-05  gal_flow
  1 44 42     748.10139302  7.56155222E-05  gal_flow
  1 44 43     748.20218615  7.56155222E-05  gal_flow
  2 44 44     748.30297928  4.05160706E-05  gal_flow
  1 43 44     748.35698594  3.50994516E-05  gal_flow
  2 43 45     748.40377242  7.56155222E-05  gal_flow
  2 43 46     748.50456555  7.56155222E-05  gal_flow
  2 43 47     748.60535868  7.56155222E-05  gal_flow
  2 43 48     748.70615181  7.56155222E-05  gal_flow
  2 43 49     748.80694495  7.56155222E-05  gal_flow
  2 43 50     748.90773808  7.56155222E-05  gal_flow
  2 43 51     749.00853121  7.56155222E-05  gal_flow
  2 43 52     749.10932434  3.47808098E-05  gal_flow
  2 42 52     749.15568608  4.08347124E-05  gal_flow
  2 42 53     749.21011747  7.56155222E-05  gal_flow
  2 42 54     749.31091061  7.56155222E-05  gal_flow
END period  1251

BEGIN period  1255
  1 44 40     748.00000000  4.50039401E-07  gal_flow
  1 44 41     748.00059989  7.56155222E-05  gal_flow
  1 44 42     748.10139302  7.56155222E-05  gal_flow
  1 44 43     748.20218615  7.56155222E-05  gal_flow
  2 44 44     748.30297928  4.05160706E-05  gal_flow
  1 43 44     748.35698594  3.50994516E-05  gal_flow
  2 43 45     748.40377242  7.56155222E-05  gal_flow
  2 43 46     748.50456555  7.56155222E-05  gal_flow
  2 43 47     748.60535868  7.56155222E-05  gal_flow
  2 43 48     748.70615181  7.56155222E-05  gal_flow
  2 43 49     748.80694495  7.56155222E-05  gal_flow
  2 43 50     748.90773808  7.56155222E-05  gal_flow
  2 43 51     749.00853121  7.56155222E-05  gal_flow
  2 43 52     749.10932434  3.47808098E-05  gal_flow
  2 42 52     749.15568608  4.08347124E-05  gal_flow
  2 42 53     749.21011747  7.56155222E-05  gal_flow
  2 42 54     749.31091061  7.56155222E-05  gal_flow
  2 42 55     749.41170374  7.56155222E-05  gal_flow
END period  1255

BEGIN period  1260
  1 44 40     748.00000000  4.50039401E-07  gal_flow
  1 44 41     748.00059989  7.56155222E-05  gal_flow
  1 44 42     748.10139302  7.56155222E-05  gal_flow
  1 44 43     748.20218615  7.56155222E-05  gal_flow
  2 44 44     748.30297928  4.05160706E-05  gal_flow
  1 43 44     748.35698594  3.50994516E-05  gal_flow
  2 43 45     748.40377242  7.56155222E-05  gal_flow
  2 43 46     748.50456555  7.56155222E-05  gal_flow
  2 43 47     748.60535868  7.56155222E-05  gal_flow
  2 43 48     748.70615181  7.56155222E-05  gal_flow
  2 43 49     748.80694495  7.56155222E-05  gal_flow
  2 43 50     748.90773808  7.56155222E-05  gal_flow
  2 43 51     749.00853121  7.56155222E-05  gal_flow
  2 43 52     749.10932434  3.47808098E-05  gal_flow
  2 42 52     749.15568608  4.08347124E-05  gal_flow
  2 42 53     749.21011747  7.56155222E-05  gal_flow
  2 42 54     749.31091061  7.56155222E-05  gal_flow
  2 42 55     749.41170374  7.56155222E-05  gal_flow
  2 42 56     749.51249687  7.56155222E-05  gal_flow
END period  1260

BEGIN period  1264
  1 44 40     748.00000000  4.50039401E-07  gal_flow
  1 44 41     748.00059989  7.56155222E-05  gal_flow
  1 44 42     748.10139302  7.56155222E-05  gal_flow
  1 44 43     748.20218615  7.56155222E-05  gal_flow
  2 44 44     748.30297928  4.05160706E-05  gal_flow
  1 43 44     748.35698594  3.50994516E-05  gal_flow
  2 43 45     748.40377242  7.56155222E-05  gal_flow
  2 43 46     748.50456555  7.56155222E-05  gal_flow
  2 43 47     748.60535868  7.56155222E-05  gal_flow
  2 43 48     748.70615181  7.56155222E-05  gal_flow
  2 43 49     748.80694495  7.56155222E-05  gal_flow
  2 43 50     748.90773808  7.56155222E-05  gal_flow
  2 43 51     749.00853121  7.56155222E-05  gal_flow
  2 43 52     749.10932434  3.47808098E-05  gal_flow
  2 42 52     749.15568608  4.08347124E-05  gal_flow
  2 42 53     749.21011747  7.56155222E-05  gal_flow
  2 42 54     749.31091061  7.56155222E-05  gal_flow
  2 42 55     749.41170374  7.56155222E-05  gal_flow
  2 42 56     749.51249687  7.56155222E-05  gal_flow
  2 42 57     749.61329000  7.56155222E-05  gal_flow
END period  1264

BEGIN period  1269
  1 44 40     748.00000000  4.50039401E-07  gal_flow
  1 44 41     748.00059989  7.56155222E-05  gal_flow
  1 44 42     748.10139302  7.56155222E-05  gal_flow
  1 44 43     748.20218615  7.56155222E-05  gal_flow
  2 44 44     748.30297928  4.05160706E-05  gal_flow
  1 43 44     748.35698594  3.50994516E-05  gal_flow
  2 43 45     748.40377242  7.56155222E-05  gal_flow
  2 43 46     748.50456555  7.56155222E-05  gal_flow
  2 43 47     748.60535868  7.56155222E-05  gal_flow
  2 43 48     748.70615181  7.56155222E-05  gal_flow
  2 43 49     748.80694495  7.56155222E-05  gal_flow
  2 43 50     748.90773808  7.56155222E-05  gal_flow
  2 43 51     749.00853121  7.56155222E-05  gal_flow
  2 43 52     749.10932434  3.47808098E-05  gal_flow
  2 42 52     749.15568608  4.08347124E-05  gal_flow
  2 42 53     749.21011747  7.56155222E-05  gal_flow
  2 42 54     749.31091061  7.56155222E-05  gal_flow
  2 42 55     749.41170374  7.56155222E-05  gal_flow
  2 42 56     749.51249687  7.56155222E-05  gal_flow
  2 42 57     749.61329000  7.56155222E-05  gal_flow
  2 42 58     749.71408313  7.56155222E-05  gal_flow
END period  1269

BEGIN period  1274
  1 44 40     748.00000000  4.50039401E-07  gal_flow
  1 44 41     748.00059989  7.56155222E-05  gal_flow
  1 44 42     748.10139302  7.56155222E-05  gal_flow
  1 44 43     748.20218615  7.56155222E-05  gal_flow
  2 44 44     748.30297928  4.05160706E-05  gal_flow
  1 43 44     748.35698594  3.50994516E-05  gal_flow
  2 43 45     748.40377242  7.56155222E-05  gal_flow
  2 43 46     748.50456555  7.56155222E-05  gal_flow
  2 43 47     748.60535868  7.56155222E-05  gal_flow
  2 43 48     748.70615181  7.56155222E-05  gal_flow
  2 43 49     748.80694495  7.56155222E-05  gal_flow
  2 43 50     748.90773808  7.56155222E-05  gal_flow
  2 43 51     749.00853121  7.56155222E-05  gal_flow
  2 43 52     749.10932434  3.47808098E-05  gal_flow
  2 42 52     749.15568608  4.08347124E-05  gal_flow
  2 42 53     749.21011747  7.56155222E-05  gal_flow
  2 42 54     749.31091061  7.56155222E-05  gal_flow
  2 42 55     749.41170374  7.56155222E-05  gal_flow
  2 42 56     749.51249687  7.56155222E-05  gal_flow
  2 42 57     749.61329000  7.56155222E-05  gal_flow
  2 42 58     749.71408313  7.56155222E-05  gal_flow
  2 42 59     749.81487627  7.56155222E-05  gal_flow
END period  1274

BEGIN period  1275
  1 44 40     748.00000000  4.50039401E-07  gal_flow
  1 44 41     748.00059989  7.56155222E-05  gal_flow
  1 44 42     748.10139302  7.56155222E-05  gal_flow
  1 44 43     748.20218615  7.56155222E-05  gal_flow
  2 44 44     748.30297928  4.05160706E-05  gal_flow
  1 43 44     748.35698594  3.50994516E-05  gal_flow
  2 43 45     748.40377242  7.56155222E-05  gal_flow
  2 43 46     748.50456555  7.56155222E-05  gal_flow
  2 43 47     748.60535868  7.56155222E-05  gal_flow
  2 43 48     748.70615181  7.56155222E-05  gal_flow
  2 43 49     748.80694495  7.56155222E-05  gal_flow
  2 43 50     748.90773808  7.56155222E-05  gal_flow
  2 43 51     749.00853121  7.56155222E-05  gal_flow
  2 43 52     749.10932434  3.47808098E-05  gal_flow
  2 42 52     749.15568608  4.08347124E-05  gal_flow
  2 42 53     749.21011747  7.56155222E-05  gal_flow
  2 42 54     749.31091061  7.56155222E-05  gal_flow
  2 42 55     749.41170374  7.56155222E-05  gal_flow
  2 42 56     749.51249687  7.56155222E-05  gal_flow
  2 42 57     749.61329000  7.56155222E-05  gal_flow
  2 42 58     749.71408313  7.56155222E-05  gal_flow
  2 42 59     749.81487627  7.56155222E-05  gal_flow
  2 42 60     749.91566940  2.90455489E-05  gal_flow
END period  1275

BEGIN period  1278
  1 44 40     748.00000000  4.50039401E-07  gal_flow
  1 44 41     748.00059989  7.56155222E-05  gal_flow
  1 44 42     748.10139302  7.56155222E-05  gal_flow
  1 44 43     748.20218615  7.56155222E-05  gal_flow
  2 44 44     748.30297928  4.05160706E-05  gal_flow
  1 43 44     748.35698594  3.50994516E-05  gal_flow
  2 43 45     748.40377242  7.56155222E-05  gal_flow
  2 43 46     748.50456555  7.56155222E-05  gal_flow
  2 43 47     748.60535868  7.56155222E-05  gal_flow
  2 43 48     748.70615181  7.56155222E-05  gal_flow
  2 43 49     748.80694495  7.56155222E-05  gal_flow
  2 43 50     748.90773808  7.56155222E-05  gal_flow
  2 43 51     749.00853121  7.56155222E-05  gal_flow
  2 43 52     749.10932434  3.47808098E-05  gal_flow
  2 42 52     749.15568608  4.08347124E-05  gal_flow
  2 42 53     749.21011747  7.56155222E-05  gal_flow
  2 42 54     749.31091061  7.56155222E-05  gal_flow
  2 42 55     749.41170374  7.56155222E-05  gal_flow
  2 42 56     749.51249687  7.56155222E-05  gal_flow
  2 42 57     749.61329000  7.56155222E-05  gal_flow
  2 42 58     749.71408313  7.56155222E-05  gal_flow
  2 42 59     749.81487627  7.56155222E-05  gal_flow
  2 42 60     749.91566940  2.90455489E-05  gal_flow
  2 41 60     749.95438621  4.65699733E-05  gal_flow
END period  1278

BEGIN period  1283
  1 44 40     748.00000000  4.50039401E-07  gal_flow
  1 44 41     748.00059989  7.56155222E-05  gal_flow
  1 44 42     748.10139302  7.56155222E-05  gal_flow
  1 44 43     748.20218615  7.56155222E-05  gal_flow
  2 44 44     748.30297928  4.05160706E-05  gal_flow
  1 43 44     748.35698594  3.50994516E-05  gal_flow
  2 43 45     748.40377242  7.56155222E-05  gal_flow
  2 43 46     748.50456555  7.56155222E-05  gal_flow
  2 43 47     748.60535868  7.56155222E-05  gal_flow
  2 43 48     748.70615181  7.56155222E-05  gal_flow
  2 43 49     748.80694495  7.56155222E-05  gal_flow
  2 43 50     748.90773808  7.56155222E-05  gal_flow
  2 43 51     749.00853121  7.56155222E-05  gal_flow
  2 43 52     749.10932434  3.47808098E-05  gal_flow
  2 42 52     749.15568608  4.08347124E-05  gal_flow
  2 42 53     749.21011747  7.56155222E-05  gal_flow
  2 42 54     749.31091061  7.56155222E-05  gal_flow
  2 42 55     749.41170374  7.56155222E-05  gal_flow
  2 42 56     749.51249687  7.56155222E-05  gal_flow
  2 42 57     749.61329000  7.56155222E-05  gal_flow
  2 42 58     749.71408313  7.56155222E-05  gal_flow
  2 42 59     749.81487627  7.56155222E-05  gal_flow
  2 42 60     749.91566940  2.90455489E-05  gal_flow
  2 41 60     749.95438621  4.65699733E-05  gal_flow
  2 41 61     750.01646253  7.56155222E-05  gal_flow
END period  1283

BEGIN period  1287
  1 44 40     748.00000000  4.50039401E-07  gal_flow
  1 44 41     748.00059989  7.56155222E-05  gal_flow
  1 44 42     748.10139302  7.56155222E-05  gal_flow
  1 44 43     748.20218615  7.56155222E-05  gal_flow
  2 44 44     748.30297928  4.05160706E-05  gal_flow
  1 43 44     748.35698594  3.50994516E-05  gal_flow
  2 43 45     748.40377242  7.56155222E-05  gal_flow
  2 43 46     748.50456555  7.56155222E-05  gal_flow
  2 43 47     748.60535868  7.56155222E-05  gal_flow
  2 43 48     748.70615181  7.56155222E-05  gal_flow
  2 43 49     748.80694495  7.56155222E-05  gal_flow
  2 43 50     748.90773808  7.56155222E-05  gal_flow
  2 43 51     749.00853121  7.56155222E-05  gal_flow
  2 43 52     749.10932434  3.47808098E-05  gal_flow
  2 42 52     749.15568608  4.08347124E-05  gal_flow
  2 42 53     749.21011747  7.56155222E-05  gal_flow
  2 42 54     749.31091061  7.56155222E-05  gal_flow
  2 42 55     749.41170374  7.56155222E-05  gal_flow
  2 42 56     749.51249687  7.56155222E-05  gal_flow
  2 42 57     749.61329000  7.56155222E-05  gal_flow
  2 42 58     749.71408313  7.56155222E-05  gal_flow
  2 42 59     749.81487627  7.56155222E-05  gal_flow
  2 42 60     749.91566940  2.90455489E-05  gal_flow
  2 41 60     749.95438621  4.65699733E-05  gal_flow
  2 41 61     750.01646253  7.56155222E-05  gal_flow
  2 41 62     750.11725566  7.56155222E-05  gal_flow
END period  1287

BEGIN period  1292
  1 44 40     748.00000000  4.50039401E-07  gal_flow
  1 44 41     748.00059989  7.56155222E-05  gal_flow
  1 44 42     748.10139302  7.56155222E-05  gal_flow
  1 44 43     748.20218615  7.56155222E-05  gal_flow
  2 44 44     748.30297928  4.05160706E-05  gal_flow
  1 43 44     748.35698594  3.50994516E-05  gal_flow
  2 43 45     748.40377242  7.56155222E-05  gal_flow
  2 43 46     748.50456555  7.56155222E-05  gal_flow
  2 43 47     748.60535868  7.56155222E-05  gal_flow
  2 43 48     748.70615181  7.56155222E-05  gal_flow
  2 43 49     748.80694495  7.56155222E-05  gal_flow
  2 43 50     748.90773808  7.56155222E-05  gal_flow
  2 43 51     749.00853121  7.56155222E-05  gal_flow
  2 43 52     749.10932434  3.47808098E-05  gal_flow
  2 42 52     749.15568608  4.08347124E-05  gal_flow
  2 42 53     749.21011747  7.56155222E-05  gal_flow
  2 42 54     749.31091061  7.56155222E-05  gal_flow
  2 42 55     749.41170374  7.56155222E-05  gal_flow
  2 42 56     749.51249687  7.56155222E-05  gal_flow
  2 42 57     749.61329000  7.56155222E-05  gal_flow
  2 42 58     749.71408313  7.56155222E-05  gal_flow
  2 42 59     749.81487627  7.56155222E-05  gal_flow
  2 42 60     749.91566940  2.90455489E-05  gal_flow
  2 41 60     749.95438621  4.65699733E-05  gal_flow
  2 41 61     750.01646253  7.56155222E-05  gal_flow
  2 41 62     750.11725566  7.56155222E-05  gal_flow
  2 41 63     750.21804879  7.56155222E-05  gal_flow
END period  1292

BEGIN period  1296
  1 44 40     748.00000000  4.50039401E-07  gal_flow
  1 44 41     748.00059989  7.56155222E-05  gal_flow
  1 44 42     748.10139302  7.56155222E-05  gal_flow
  1 44 43     748.20218615  7.56155222E-05  gal_flow
  2 44 44     748.30297928  4.05160706E-05  gal_flow
  1 43 44     748.35698594  3.50994516E-05  gal_flow
  2 43 45     748.40377242  7.56155222E-05  gal_flow
  2 43 46     748.50456555  7.56155222E-05  gal_flow
  2 43 47     748.60535868  7.56155222E-05  gal_flow
  2 43 48     748.70615181  7.56155222E-05  gal_flow
  2 43 49     748.80694495  7.56155222E-05  gal_flow
  2 43 50     748.90773808  7.56155222E-05  gal_flow
  2 43 51     749.00853121  7.56155222E-05  gal_flow
  2 43 52     749.10932434  3.47808098E-05  gal_flow
  2 42 52     749.15568608  4.08347124E-05  gal_flow
  2 42 53     749.21011747  7.56155222E-05  gal_flow
  2 42 54     749.31091061  7.56155222E-05  gal_flow
  2 42 55     749.41170374  7.56155222E-05  gal_flow
  2 42 56     749.51249687  7.56155222E-05  gal_flow
  2 42 57     749.61329000  7.56155222E-05  gal_flow
  2 42 58     749.71408313  7.56155222E-05  gal_flow
  2 42 59     749.81487627  7.56155222E-05  gal_flow
  2 42 60     749.91566940  2.90455489E-05  gal_flow
  2 41 60     749.95438621  4.65699733E-05  gal_flow
  2 41 61     750.01646253  7.56155222E-05  gal_flow
  2 41 62     750.11725566  7.56155222E-05  gal_flow
  2 41 63     750.21804879  7.56155222E-05  gal_flow
  2 41 64     750.31884193  7.56155222E-05  gal_flow
END period  1296

BEGIN period  1301
  1 44 40     748.00000000  4.50039401E-07  gal_flow
  1 44 41     748.00059989  7.56155222E-05  gal_flow
  1 44 42     748.10139302  7.56155222E-05  gal_flow
  1 44 43     748.20218615  7.56155222E-05  gal_flow
  2 44 44     748.30297928  4.05160706E-05  gal_flow
  1 43 44     748.35698594  3.50994516E-05  gal_flow
  2 43 45     748.40377242  7.56155222E-05  gal_flow
  2 43 46     748.50456555  7.56155222E-05  gal_flow
  2 43 47     748.60535868  7.56155222E-05  gal_flow
  2 43 48     748.70615181  7.56155222E-05  gal_flow
  2 43 49     748.80694495  7.56155222E-05  gal_flow
  2 43 50     748.90773808  7.56155222E-05  gal_flow
  2 43 51     749.00853121  7.56155222E-05  gal_flow
  2 43 52     749.10932434  3.47808098E-05  gal_flow
  2 42 52     749.15568608  4.08347124E-05  gal_flow
  2 42 53     749.21011747  7.56155222E-05  gal_flow
  2 42 54     749.31091061  7.56155222E-05  gal_flow
  2 42 55     749.41170374  7.56155222E-05  gal_flow
  2 42 56     749.51249687  7.56155222E-05  gal_flow
  2 42 57     749.61329000  7.56155222E-05  gal_flow
  2 42 58     749.71408313  7.56155222E-05  gal_flow
  2 42 59     749.81487627  7.56155222E-05  gal_flow
  2 42 60     749.91566940  2.90455489E-05  gal_flow
  2 41 60     749.95438621  4.65699733E-05  gal_flow
  2 41 61     750.01646253  7.56155222E-05  gal_flow
  2 41 62     750.11725566  7.56155222E-05  gal_flow
  2 41 63     750.21804879  7.56155222E-05  gal_flow
  2 41 64     750.31884193  7.56155222E-05  gal_flow
  2 41 65     750.41963506  7.56155222E-05  gal_flow
END period  1301

BEGIN period  1306
  1 44 40     748.00000000  4.50039401E-07  gal_flow
  1 44 41     748.00059989  7.56155222E-05  gal_flow
  1 44 42     748.10139302  7.56155222E-05  gal_flow
  1 44 43     748.20218615  7.56155222E-05  gal_flow
  2 44 44     748.30297928  4.05160706E-05  gal_flow
  1 43 44     748.35698594  3.50994516E-05  gal_flow
  2 43 45     748.40377242  7.56155222E-05  gal_flow
  2 43 46     748.50456555  7.56155222E-05  gal_flow
  2 43 47     748.60535868  7.56155222E-05  gal_flow
  2 43 48     748.70615181  7.56155222E-05  gal_flow
  2 43 49     748.80694495  7.56155222E-05  gal_flow
  2 43 50     748.90773808  7.56155222E-05  gal_flow
  2 43 51     749.00853121  7.56155222E-05  gal_flow
  2 43 52     749.10932434  3.47808098E-05  gal_flow
  2 42 52     749.15568608  4.08347124E-05  gal_flow
  2 42 53     749.21011747  7.56155222E-05  gal_flow
  2 42 54     749.31091061  7.56155222E-05  gal_flow
  2 42 55     749.41170374  7.56155222E-05  gal_flow
  2 42 56     749.51249687  7.56155222E-05  gal_flow
  2 42 57     749.61329000  7.56155222E-05  gal_flow
  2 42 58     749.71408313  7.56155222E-05  gal_flow
  2 42 59     749.81487627  7.56155222E-05  gal_flow
  2 42 60     749.91566940  2.90455489E-05  gal_flow
  2 41 60     749.95438621  4.65699733E-05  gal_flow
  2 41 61     750.01646253  7.56155222E-05  gal_flow
  2 41 62     750.11725566  7.56155222E-05  gal_flow
  2 41 63     750.21804879  7.56155222E-05  gal_flow
  2 41 64     750.31884193  7.56155222E-05  gal_flow
  2 41 65     750.41963506  7.56155222E-05  gal_flow
  3 41 66     750.52042819  7.56155222E-05  gal_flow
END period  1306

BEGIN period  1310
  1 44 40     748.00000000  4.50039401E-07  gal_flow
  1 44 41     748.00059989  7.56155222E-05  gal_flow
  1 44 42     748.10139302  7.56155222E-05  gal_flow
  1 44 43     748.20218615  7.56155222E-05  gal_flow
  2 44 44     748.30297928  4.05160706E-05  gal_flow
  1 43 44     748.35698594  3.50994516E-05  gal_flow
  2 43 45     748.40377242  7.56155222E-05  gal_flow
  2 43 46     748.50456555  7.56155222E-05  gal_flow
  2 43 47     748.60535868  7.56155222E-05  gal_flow
  2 43 48     748.70615181  7.56155222E-05  gal_flow
  2 43 49     748.80694495  7.56155222E-05  gal_flow
  2 43 50     748.90773808  7.56155222E-05  gal_flow
  2 43 51     749.00853121  7.56155222E-05  gal_flow
  2 43 52     749.10932434  3.47808098E-05  gal_flow
  2 42 52     749.15568608  4.08347124E-05  gal_flow
  2 42 53     749.21011747  7.56155222E-05  gal_flow
  2 42 54     749.31091061  7.56155222E-05  gal_flow
  2 42 55     749.41170374  7.56155222E-05  gal_flow
  2 42 56     749.51249687  7.56155222E-05  gal_flow
  2 42 57     749.61329000  7.56155222E-05  gal_flow
  2 42 58     749.71408313  7.56155222E-05  gal_flow
  2 42 59     749.81487627  7.56155222E-05  gal_flow
  2 42 60     749.91566940  2.90455489E-05  gal_flow
  2 41 60     749.95438621  4.65699733E-05  gal_flow
  2 41 61     750.01646253  7.56155222E-05  gal_flow
  2 41 62     750.11725566  7.56155222E-05  gal_flow
  2 41 63     750.21804879  7.56155222E-05  gal_flow
  2 41 64     750.31884193  7.56155222E-05  gal_flow
  2 41 65     750.41963506  7.56155222E-05  gal_flow
  3 41 66     750.52042819  7.56155222E-05  gal_flow
  3 41 67     750.62122132  7.56155222E-05  gal_flow
END period  1310

BEGIN period  1312
  1 44 40     748.00000000  4.50039401E-07  gal_flow
  1 44 41     748.00059989  7.56155222E-05  gal_flow
  1 44 42     748.10139302  7.56155222E-05  gal_flow
  1 44 43     748.20218615  7.56155222E-05  gal_flow
  2 44 44     748.30297928  4.05160706E-05  gal_flow
  1 43 44     748.35698594  3.50994516E-05  gal_flow
  2 43 45     748.40377242  7.56155222E-05  gal_flow
  2 43 46     748.50456555  7.56155222E-05  gal_flow
  2 43 47     748.60535868  7.56155222E-05  gal_flow
  2 43 48     748.70615181  7.56155222E-05  gal_flow
  2 43 49     748.80694495  7.56155222E-05  gal_flow
  2 43 50     748.90773808  7.56155222E-05  gal_flow
  2 43 51     749.00853121  7.56155222E-05  gal_flow
  2 43 52     749.10932434  3.47808098E-05  gal_flow
  2 42 52     749.15568608  4.08347124E-05  gal_flow
  2 42 53     749.21011747  7.56155222E-05  gal_flow
  2 42 54     749.31091061  7.56155222E-05  gal_flow
  2 42 55     749.41170374  7.56155222E-05  gal_flow
  2 42 56     749.51249687  7.56155222E-05  gal_flow
  2 42 57     749.61329000  7.56155222E-05  gal_flow
  2 42 58     749.71408313  7.56155222E-05  gal_flow
  2 42 59     749.81487627  7.56155222E-05  gal_flow
  2 42 60     749.91566940  2.90455489E-05  gal_flow
  2 41 60     749.95438621  4.65699733E-05  gal_flow
  2 41 61     750.01646253  7.56155222E-05  gal_flow
  2 41 62     750.11725566  7.56155222E-05  gal_flow
  2 41 63     750.21804879  7.56155222E-05  gal_flow
  2 41 64     750.31884193  7.56155222E-05  gal_flow
  2 41 65     750.41963506  7.56155222E-05  gal_flow
  3 41 66     750.52042819  7.56155222E-05  gal_flow
  3 41 67     750.62122132  7.56155222E-05  gal_flow
  3 41 68     750.72201445  2.33102880E-05  gal_flow
END period  1312

BEGIN period  1315
  1 44 40     748.00000000  4.50039401E-07  gal_flow
  1 44 41     748.00059989  7.56155222E-05  gal_flow
  1 44 42     748.10139302  7.56155222E-05  gal_flow
  1 44 43     748.20218615  7.56155222E-05  gal_flow
  2 44 44     748.30297928  4.05160706E-05  gal_flow
  1 43 44     748.35698594  3.50994516E-05  gal_flow
  2 43 45     748.40377242  7.56155222E-05  gal_flow
  2 43 46     748.50456555  7.56155222E-05  gal_flow
  2 43 47     748.60535868  7.56155222E-05  gal_flow
  2 43 48     748.70615181  7.56155222E-05  gal_flow