# File generated by Flopy version 3.3.2 on 06/08/2021 at 13:55:56.
BEGIN options
END options

BEGIN packages
  DIS6  modelo_Norte.dis  dis
  NPF6  modelo_Norte.npf  npf
  RCH6  modelo_Norte.rch  rch
  DRN6  modelo_Norte.drn  drn
  CHD6  modelo_Norte.chd  chd
  GHB6  modelo_Norte.ghb  ghb
  IC6  modelo_Norte.ic  ic
  OC6  modelo_Norte.oc  oc
END packages

