# File generated by Flopy version 3.3.2 on 08/19/2021 at 20:23:50.
BEGIN options
  XORIGIN  1.10238512E+06
  YORIGIN  1.28136222E+06
END options

BEGIN dimensions
  NLAY  6
  NROW  21
  NCOL  27
END dimensions

BEGIN griddata
  delr
    INTERNAL  FACTOR  1.0
       180.00000000     180.00000000     180.00000000     180.00000000     180.00000000     180.00000000     180.00000000     180.00000000     180.00000000     180.00000000     180.00000000     180.00000000     120.00000000      80.00000000      80.00000000      80.00000000      80.00000000      80.00000000      80.00000000      80.00000000
        80.00000000      80.00000000      80.00000000      80.00000000     120.00000000     180.00000000     180.00000000
  delc
    INTERNAL  FACTOR  1.0
       180.00000000     180.00000000     180.00000000     180.00000000     180.00000000     180.00000000     180.00000000     180.00000000     180.00000000     180.00000000     180.00000000     120.00000000      80.00000000      80.00000000      80.00000000      80.00000000      80.00000000     120.00000000     180.00000000     180.00000000
       180.00000000
  top
    INTERNAL  FACTOR  1.0
       660.00000000     609.00000000     614.00000000     628.00000000     639.00000000     636.00000000     635.00000000     652.00000000     706.00000000     761.00000000     781.00000000     777.00000000     760.00000000     763.00000000     767.00000000     759.00000000     759.00000000     782.00000000     792.00000000     810.00000000
       827.00000000     827.00000000     837.00000000     856.00000000     864.00000000     810.00000000     843.00000000
       739.00000000     694.00000000     714.00000000     660.00000000     612.96862793     610.29577637     612.00000000     614.00000000     645.33636475     710.70300293     755.86462402     744.00000000     728.09515381     724.00000000     732.14111328     731.39550781     710.00000000     718.80456543     772.02325439     779.76373291
       808.45684814     839.10461426     856.00000000     829.43927002     826.39642334     804.00000000     837.00000000
       789.00000000     752.00000000     686.00000000     626.00000000     608.48382568     616.10272217     617.63671875     642.53350830     618.61529541     726.99554443     733.73986816     702.31451416     699.52001953     709.16284180     708.73626709     700.00000000     696.27777100     724.77691650     758.79010010     779.60107422
       807.54626465     826.44146729     817.30316162     801.82440186     804.00000000     782.00000000     839.00000000
       736.00000000     708.00000000     642.00000000     618.00000000     610.29028320     617.67663574     623.86480713     655.17523193     629.27539062     691.71691895     676.34460449     686.00000000     693.76629639     684.00000000     690.29675293     710.15783691     740.00000000     751.79724121     760.00000000     773.24468994
       785.99078369     785.33343506     780.75048828     774.56481934     792.00000000     777.00000000     869.00000000
       727.00000000     687.00000000     635.00000000     622.00000000     612.00000000     621.18878174     626.55682373     680.00000000     652.57086182     627.95739746     651.51116943     656.46582031     657.75250244     656.00000000     659.22863770     689.38049316     712.73846436     746.64727783     773.45428467     774.18597412
       765.10278320     755.68792725     740.00000000     751.55444336     747.00000000     814.00000000     847.00000000
       687.00000000     661.00000000     633.00000000     625.00000000     614.08898926     631.73828125     648.07989502     697.34155273     703.75842285     628.00000000     634.58886719     640.76385498     645.76336670     655.53277588     663.15869141     673.04541016     712.22650146     743.27722168     746.45214844     744.00000000
       743.26556396     739.52368164     743.00000000     722.00000000     747.00000000     780.00000000     843.00000000
       668.00000000     641.00000000     624.00000000     622.00000000     612.00000000     644.38696289     662.55267334     693.93780518     739.02856445     700.00000000     664.37438965     654.22644043     649.72454834     648.00000000     642.56732178     667.59637451     695.54742432     723.32653809     713.69537354     719.20318604
       728.31604004     734.00000000     715.00000000     709.00000000     768.00000000     810.00000000     834.00000000
       671.00000000     627.00000000     626.00000000     627.00000000     636.00000000     663.29870605     658.00000000     718.71716309     742.00000000     713.92309570     710.00000000     678.90515137     668.22906494     651.59234619     644.00000000     651.62451172     658.37884521     679.07727051     685.35461426     668.90875244
       684.90850830     688.00000000     697.00000000     709.00000000     735.00000000     775.00000000     803.00000000
       656.00000000     626.00000000     629.00000000     614.00000000     654.13641357     679.98968506     661.63226318     704.20220947     742.00000000     738.49707031     732.00000000     702.34918213     683.24090576     673.60852051     659.83160400     669.96929932     671.66723633     670.06878662     674.52203369     688.06054688
       691.35961914     658.57324219     654.00000000     655.94573975     658.32794189     697.00000000     767.00000000
       636.00000000     629.00000000     620.00000000     644.50158691     668.00762939     693.81286621     708.36175537     709.83819580     748.00000000     745.72070312     739.93780518     729.67321777     712.00000000     694.88940430     692.28082275     684.38116455     696.00000000     699.12359619     717.46081543     732.84271240
       730.19049072     731.99615479     747.87878418     751.48571777     722.72381592     664.00000000     708.00000000
       635.00000000     620.00000000     620.00000000     660.31353760     719.99041748     712.00000000     740.54766846     724.81610107     789.41101074     760.30572510     763.61553955     747.82012939     736.40264893     723.92523193     728.35565186     727.84613037     725.91882324     700.27301025     726.46447754     748.04949951
       770.18939209     792.90045166     786.49395752     780.31744385     734.00122070     688.30590820     664.85595703
       624.06140137     627.32971191     638.00000000     674.42047119     701.81542969     735.03045654     752.00000000     739.69042969     791.79626465     784.06915283     775.03936768     761.08892822     756.84588623     746.22552490     728.25708008     737.51782227     743.68041992     751.97564697     761.39654541     768.24871826
       781.78045654     794.10595703     814.38952637     808.68572998     757.55706787     701.11523438     695.42535400
       626.00000000     641.82385254     666.45300293     708.49139404     736.23547363     749.56066895     746.11041260     754.50317383     776.00000000     789.69134521     785.54833984     778.39086914     770.07769775     750.83874512     745.37628174     738.21478271     762.00000000     766.00000000     771.26300049     778.74560547
       795.74957275     796.60198975     827.10021973     813.28033447     773.23406982     742.04980469     740.11425781
       636.55957031     638.00000000     676.95172119     712.70837402     729.59332275     718.37219238     744.29071045     759.88824463     803.52624512     792.95971680     790.27056885     784.96527100     783.98028564     770.41204834     770.23443604     742.00000000     776.31030273     778.82415771     785.25079346     791.01464844
       803.45471191     808.96520996     824.50189209     831.33813477     795.94232178     770.76031494     776.71282959
       641.73303223     668.25451660     660.66424561     695.55957031     690.92224121     725.87689209     761.02404785     793.67669678     819.10821533     798.85272217     804.58715820     790.00000000     790.13604736     785.48742676     776.00000000     754.55993652     777.38848877     787.40002441     789.75347900     795.37231445
       807.93200684     816.07379150     825.19049072     849.02343750     815.50122070     774.36688232     800.33569336
       670.00000000     687.62066650     660.90319824     669.20434570     703.13549805     744.55645752     793.38385010     836.29681396     849.74169922     823.91094971     808.50579834     807.31231689     801.30053711     796.64019775     791.33746338     759.39379883     777.45068359     790.78924561     793.16564941     801.60382080
       813.81512451     822.51281738     827.19146729     847.58172607     834.55108643     778.00000000     831.39953613
       661.52813721     695.85412598     684.21325684     680.00000000     741.25073242     768.19195557     815.18145752     878.00000000     895.29620361     853.42126465     814.03637695     824.67169189     828.66601562     812.73394775     772.82342529     802.26940918     779.98413086     795.44696045     800.00000000     816.17803955
       823.71185303     828.00000000     839.99493408     875.06201172     848.50421143     803.28369141     853.07824707
       656.05859375     731.95825195     707.25274658     707.14489746     701.85656738     748.12573242     816.69366455     855.61859131     892.00000000     879.06872559     842.46661377     830.00000000     822.26422119     818.37908936     822.96875000     821.13287354     822.00000000     807.74530029     822.65759277     829.78411865
       830.82281494     844.15521240     860.74060059     889.16729736     885.23950195     836.95727539     892.38543701
       665.82696533     705.59313965     761.58978271     772.26708984     731.56481934     773.23754883     789.13439941     824.28558350     900.00000000     903.53417969     869.32342529     841.17309570     833.43408203     833.31262207     834.62457275     834.01354980     833.76013184     834.00000000     836.72271729     844.44598389
       852.57574463     870.67681885     883.43066406     923.54675293     943.12292480     902.54211426     959.69134521
       696.20245361     755.63317871     741.73510742     813.96240234     805.20581055     803.35406494     775.67224121     839.65051270     910.00000000     917.32025146     919.72528076     896.43572998     888.92382812     887.08471680     886.29248047     881.05908203     882.92456055     890.80285645     898.23193359     909.52856445
       914.11340332     933.73571777     962.70794678     974.61535645     978.61413574     984.16326904     994.30755615
       667.01202393     671.76263428     710.93566895     740.03479004     805.75744629     806.82940674     862.00000000     866.08959961     870.12158203     920.67498779     928.35198975     934.49005127     941.33239746     946.00000000     949.26879883     953.83197021     957.26184082     960.35388184     964.00000000     966.94049072
       969.60858154     976.00000000     976.92199707     982.29589844     985.85473633     992.54852295     998.00000000
  botm
    INTERNAL  FACTOR  1.0
       659.00000000     608.00000000     613.00000000     627.00000000     638.00000000     635.00000000     634.00000000     651.00000000     705.00000000     760.00000000     780.00000000     776.00000000     759.00000000     762.00000000     766.00000000     758.00000000     758.00000000     781.00000000     791.00000000     809.00000000
       826.00000000     826.00000000     836.00000000     855.00000000     863.00000000     809.00000000     842.00000000
       738.00000000     693.00000000     713.00000000     659.00000000     611.96862793     609.29577637     611.00000000     613.00000000     644.33636475     709.70300293     754.86462402     743.00000000     727.09515381     723.00000000     731.14111328     730.39550781     709.00000000     717.80456543     771.02325439     778.76373291
       807.45684814     838.10461426     855.00000000     828.43927002     825.39642334     803.00000000     836.00000000
       788.00000000     751.00000000     685.00000000     625.00000000     607.48382568     615.10272217     616.63671875     641.53350830     617.61529541     725.99554443     732.73986816     701.31451416     698.52001953     708.16284180     707.73626709     699.00000000     695.27777100     723.77691650     757.79010010     778.60107422
       806.54626465     825.44146729     816.30316162     800.82440186     803.00000000     781.00000000     838.00000000
       735.00000000     707.00000000     641.00000000     617.00000000     609.29028320     616.67663574     622.86480713     654.17523193     628.27539062     690.71691895     675.34460449     685.00000000     692.76629639     683.00000000     689.29675293     709.15783691     739.00000000     750.79724121     759.00000000     772.24468994
       784.99078369     784.33343506     779.75048828     773.56481934     791.00000000     776.00000000     868.00000000
       726.00000000     686.00000000     634.00000000     621.00000000     611.00000000     620.18878174     625.55682373     679.00000000     651.57086182     626.95739746     650.51116943     655.46582031     656.75250244     655.00000000     658.22863770     688.38049316     711.73846436     745.64727783     772.45428467     773.18597412
       764.10278320     754.68792725     739.00000000     750.55444336     746.00000000     813.00000000     846.00000000
       686.00000000     660.00000000     632.00000000     624.00000000     613.08898926     630.73828125     647.07989502     696.34155273     686.00598145     627.00000000     633.58886719     639.76385498     644.76336670     654.53277588     662.15869141     672.04541016     711.22650146     742.27722168     745.45214844     743.00000000
       742.26556396     738.52368164     742.00000000     721.00000000     746.00000000     779.00000000     842.00000000
       667.00000000     640.00000000     623.00000000     621.00000000     611.00000000     643.38696289     661.55267334     692.93780518     704.79901123     675.03802490     649.54797363     653.22644043     647.90997314     627.41198730     641.56732178     666.59637451     694.54742432     722.32653809     712.69537354     718.20318604
       727.31604004     733.00000000     714.00000000     708.00000000     767.00000000     809.00000000     833.00000000
       670.00000000     626.00000000     625.00000000     626.00000000     635.00000000     662.29870605     657.00000000     697.83502197     719.51300049     690.74200439     682.33398438     666.12097168     664.43902588     650.59234619     643.00000000     650.62451172     657.37884521     678.07727051     684.35461426     667.90875244
       683.90850830     687.00000000     696.00000000     708.00000000     734.00000000     774.00000000     802.00000000
       655.00000000     625.00000000     628.00000000     613.00000000     653.13641357     678.98968506     660.63226318     703.20220947     732.31097412     722.59600830     710.95098877     694.52398682     682.24090576     667.68798828     649.37200928     644.92700195     668.79199219     669.06878662     673.52203369     687.06054688
       690.35961914     657.57324219     653.00000000     654.94573975     657.32794189     696.00000000     766.00000000
       635.00000000     628.00000000     619.00000000     643.50158691     667.00762939     692.81286621     707.36175537     708.83819580     742.04901123     739.20397949     725.92999268     722.94000244     699.30700684     687.00201416     690.04901123     683.38116455     680.90698242     693.67999268     708.48999023     731.84271240
       729.19049072     730.99615479     746.87878418     750.48571777     721.72381592     663.00000000     707.00000000
       634.00000000     619.00000000     619.00000000     659.31353760     718.99041748     711.00000000     739.54766846     723.81610107     766.93103027     749.31298828     731.20501709     738.03497314     717.04498291     713.53399658     720.29998779     717.38397217     720.62402344     695.82501221     717.95599365     731.01000977
       769.18939209     791.90045166     785.49395752     779.31744385     733.00122070     687.30590820     663.85595703
       623.06140137     626.32971191     637.00000000     673.42047119     700.81542969     734.03045654     751.00000000     738.69042969     768.01898193     773.79400635     764.86297607     754.21099854     739.81201172     735.44097900     719.96801758     708.82397461     725.04498291     738.99401855     746.98999023     750.37298584
       761.58300781     787.69000244     813.38952637     807.68572998     756.55706787     700.11523438     694.42535400
       625.00000000     640.82385254     665.45300293     707.49139404     735.23547363     748.56066895     745.11041260     753.50317383     761.78900146     777.99298096     773.61199951     765.65197754     758.11499023     741.73999023     735.78198242     735.89898682     749.50500488     757.92498779     765.84802246     771.76702881
       784.10198975     794.65100098     826.10021973     812.28033447     772.23406982     741.04980469     739.11425781
       635.55957031     637.00000000     675.95172119     711.70837402     728.59332275     717.37219238     743.29071045     758.88824463     802.52624512     775.08398438     775.35498047     770.01202393     760.58599854     750.19702148     750.99902344     741.00000000     744.53997803     762.04699707     769.07000732     776.09802246
       787.38598633     797.79699707     823.50189209     830.33813477     794.94232178     769.76031494     775.71282959
       640.73303223     667.25451660     659.66424561     694.55957031     689.92224121     724.87689209     760.02404785     792.67669678     818.10821533     792.94500732     785.99298096     782.02697754     774.53900146     771.23199463     768.84600830     740.54302979     762.57098389     781.28497314     776.03497314     783.26098633
       797.63000488     807.92602539     820.85998535     848.02343750     814.50122070     773.36688232     799.33569336
       669.00000000     686.62066650     659.90319824     668.20434570     702.13549805     743.55645752     792.38385010     835.29681396     848.74169922     822.91094971     790.22198486     789.36602783     782.30603027     783.44201660     762.23602295     745.04699707     771.74597168     777.03100586     776.73101807     787.43402100
       803.93499756     814.58502197     826.19146729     840.92999268     833.55108643     777.00000000     830.39953613
       660.52813721     694.85412598     683.21325684     679.00000000     740.25073242     767.19195557     814.18145752     858.39398193     839.82897949     849.95300293     809.22399902     784.07800293     779.03900146     773.95397949     767.43597412     777.25201416     770.58197021     784.95300293     783.90600586     789.67102051
       800.99401855     812.76098633     832.35198975     821.83898926     829.49200439     802.28369141     852.07824707
       655.05859375     730.95825195     706.25274658     706.14489746     700.85656738     747.12573242     815.69366455     854.61859131     856.02197266     835.06799316     818.66497803     780.59301758     778.09301758     777.69000244     786.67498779     809.78198242     798.68798828     799.76702881     797.14697266     793.09301758
       797.62298584     812.54998779     830.50097656     817.22399902     808.55603027     814.92602539     891.38543701
       664.82696533     704.59313965     760.58978271     771.26708984     730.56481934     772.23754883     788.13439941     823.28558350     861.47698975     834.58001709     840.20397949     813.29901123     809.19299316     819.81701660     820.06402588     821.54602051     826.26599121     823.01599121     816.97399902     817.39398193
       827.55200195     846.25402832     841.76098633     838.95098877     836.70300293     846.58502197     846.63000488
       695.20245361     754.63317871     740.73510742     812.96240234     804.20581055     802.35406494     774.67224121     838.65051270     842.42199707     842.82202148     844.09899902     848.15698242     855.53302002     863.79498291     869.58801270     877.13598633     881.92456055     885.34301758     881.08398438     870.51202393
       858.99700928     851.15802002     847.82299805     847.55902100     848.40600586     983.16326904     993.30755615
       666.01202393     670.76263428     709.93566895     739.03479004     804.75744629     805.82940674     861.00000000     865.08959961     869.12158203     845.33898926     843.70397949     847.91198730     940.33239746     945.00000000     948.26879883     952.83197021     956.26184082     959.35388184     963.00000000     965.94049072
       968.60858154     975.00000000     975.92199707     981.29589844     984.85473633     991.54852295     997.00000000
       659.00000000     608.00000000     613.00000000     627.00000000     638.00000000     635.00000000     634.00000000     651.00000000     705.00000000     760.00000000     780.00000000     776.00000000     759.00000000     762.00000000     766.00000000     758.00000000     758.00000000     781.00000000     791.00000000     809.00000000
       826.00000000     826.00000000     836.00000000     855.00000000     863.00000000     809.00000000     842.00000000
       738.00000000     693.00000000     713.00000000     659.00000000     611.96862793     609.29577637     611.00000000     613.00000000     644.33636475     709.70300293     754.86462402     743.00000000     727.09515381     723.00000000     731.14111328     730.39550781     709.00000000     717.80456543     771.02325439     778.76373291
       807.45684814     838.10461426     855.00000000     828.43927002     825.39642334     803.00000000     836.00000000
       788.00000000     751.00000000     685.00000000     625.00000000     607.48382568     615.10272217     616.63671875     641.53350830     617.61529541     725.99554443     732.73986816     701.31451416     698.52001953     708.16284180     707.73626709     699.00000000     695.27777100     723.77691650     757.79010010     778.60107422
       806.54626465     825.44146729     816.30316162     800.82440186     803.00000000     781.00000000     838.00000000
       735.00000000     707.00000000     641.00000000     617.00000000     609.29028320     616.67663574     622.86480713     654.17523193     628.27539062     690.71691895     675.34460449     685.00000000     692.76629639     683.00000000     689.29675293     709.15783691     739.00000000     750.79724121     759.00000000     772.24468994
       784.99078369     784.33343506     779.75048828     773.56481934     791.00000000     776.00000000     868.00000000
       726.00000000     686.00000000     634.00000000     621.00000000     611.00000000     620.18878174     625.55682373     679.00000000     651.57086182     626.95739746     650.51116943     655.46582031     656.75250244     655.00000000     658.22863770     688.38049316     711.73846436     745.64727783     772.45428467     773.18597412
       764.10278320     754.68792725     739.00000000     750.55444336     746.00000000     813.00000000     846.00000000
       686.00000000     660.00000000     632.00000000     624.00000000     613.08898926     630.73828125     647.07989502     696.34155273     686.00598145     627.00000000     633.58886719     639.76385498     644.76336670     654.53277588     662.15869141     672.04541016     711.22650146     742.27722168     745.45214844     743.00000000
       742.26556396     738.52368164     742.00000000     721.00000000     746.00000000     779.00000000     842.00000000
       667.00000000     640.00000000     623.00000000     621.00000000     611.00000000     643.38696289     661.55267334     669.98541260     686.31350708     675.03802490     649.54797363     653.22644043     647.90997314     627.41198730     641.56732178     666.59637451     694.54742432     722.32653809     712.69537354     718.20318604
       727.31604004     733.00000000     714.00000000     708.00000000     767.00000000     809.00000000     833.00000000
       670.00000000     626.00000000     625.00000000     626.00000000     635.00000000     662.29870605     657.00000000     670.31402588     704.73150635     680.48400879     673.01150513     666.12097168     664.43902588     650.59234619     643.00000000     650.62451172     657.37884521     678.07727051     684.35461426     667.90875244
       683.90850830     687.00000000     696.00000000     708.00000000     734.00000000     774.00000000     802.00000000
       655.00000000     625.00000000     628.00000000     613.00000000     653.13641357     674.02685547     660.63226318     678.60659790     704.57849121     699.42449951     690.49200439     686.93649292     682.24090576     667.68798828     649.37200928     644.92700195     668.79199219     669.06878662     673.52203369     687.06054688
       690.35961914     657.57324219     653.00000000     654.94573975     657.32794189     696.00000000     766.00000000
       635.00000000     628.00000000     619.00000000     643.50158691     667.00762939     681.35794067     692.87588501     693.76760864     716.24349976     713.64700317     703.36248779     692.89599609     685.26251221     678.87200928     679.94851685     676.57708740     677.62197876     684.21350098     708.48999023     731.84271240
       729.19049072     730.99615479     746.87878418     750.48571777     721.72381592     663.00000000     707.00000000
       634.00000000     619.00000000     619.00000000     659.31353760     691.68319702     687.10501099     707.78833008     706.42855835     740.93701172     727.58398438     711.19451904     707.04998779     703.32098389     698.55648804     697.13949585     691.87347412     696.09051514     692.42700195     714.69750977     731.01000977
       759.10620117     766.91073608     765.77447510     767.13122559     733.00122070     687.30590820     663.85595703
       623.06140137     626.32971191     637.00000000     673.42047119     683.27822876     697.68121338     720.16250610     727.02172852     744.84100342     747.78149414     739.60598755     721.76800537     721.20401001     720.68698120     709.62750244     702.76498413     713.08850098     728.22500610     737.20999146     742.40548706
       755.39849854     770.67950439     780.58526611     778.17086792     756.55706787     700.11523438     694.42535400
       625.00000000     640.82385254     658.80801392     686.74920654     695.31872559     710.67282104     723.74371338     736.02359009     742.28350830     748.79299927     745.43200684     740.72949219     738.04400635     729.62948608     727.13848877     726.45199585     731.69601440     737.75549316     746.00100708     751.02600098
       762.67700195     779.63598633     793.49960327     784.19168091     772.23406982     741.04980469     739.11425781
       635.55957031     637.00000000     675.95172119     711.70837402     688.41467285     700.02859497     728.45986938     743.55163574     767.00161743     747.03799438     742.50448608     742.10052490     738.61599731     736.27951050     738.17752075     727.78201294     725.81900024     739.78649902     747.52749634     752.10150146
       761.98999023     788.90249634     802.61093140     804.13705444     780.75317383     769.76031494     775.71282959
       640.73303223     667.25451660     659.66424561     688.70629883     681.73413086     711.98193359     740.32952881     765.92584229     780.18060303     764.44149780     755.19198608     750.98999023     745.40548706     746.99850464     750.08651733     731.62350464     739.19998169     750.66247559     750.13949585     755.54748535
       768.43798828     804.85000610     806.21899414     817.08770752     789.92361450     765.93142700     799.33569336
       669.00000000     686.62066650     659.90319824     668.20434570     690.95623779     725.15072632     757.22442627     789.51089478     797.25634766     781.38146973     761.45050049     756.62701416     749.29251099     751.73800659     750.15249634     739.86898804     746.97299194     750.37500000     751.49801636     758.16799927
       770.77499390     797.60751343     806.69073486     813.37750244     801.58905029     777.00000000     830.39953613
       660.52813721     694.85412598     683.21325684     679.00000000     708.64987183     729.89898682     765.76922607     797.38748169     793.88098145     796.34799194     771.00900269     755.85449219     750.61550903     750.63497925     756.06848145     764.08502197     753.63897705     757.22500610     756.85000610     762.27551270
       775.75701904     794.52850342     805.66149902     801.76998901     801.30999756     802.28369141     852.07824707
       655.05859375     730.95825195     706.25274658     706.14489746     700.85656738     708.83987427     760.89932251     793.56179810     806.01647949     792.21350098     777.25399780     757.99349976     758.18652344     759.23748779     768.29000854     784.98699951     777.13098145     773.52401733     771.82299805     772.88351440
       780.78549194     794.04849243     804.82299805     797.44549561     791.89700317     795.47250366     891.38543701
       664.82696533     704.59313965     760.58978271     771.26708984     730.56481934     715.18878174     740.71270752     776.44479370     805.81250000     793.96499634     794.38400269     782.62649536     785.13250732     792.95651245     793.44552612     795.17651367     799.20748901     796.96450806     793.00650024     792.81848145
       798.48400879     808.82400513     807.41348267     807.26647949     808.75149536     817.25500488     818.40551758
       695.20245361     754.63317871     740.73510742     812.96240234     804.20581055     802.35406494     736.89761353     782.03076172     790.58749390     800.22952271     802.17599487     807.49948120     815.56900024     822.02047729     826.05850220     830.39199829     833.78329468     836.70449829     835.83599854     830.70852661