# File generated by Flopy version 3.3.2 on 06/08/2021 at 13:55:56.
BEGIN options
  PRINT_INPUT
  PRINT_FLOWS
  SAVE_FLOWS
END options

BEGIN dimensions
  MAXBOUND  149
END dimensions

BEGIN period  1
  1 32 41     910.88415527  5.00000000E-06
  2 32 41     910.88415527  5.00000000E-07
  3 32 41     910.88415527  5.00000000E-07
  4 32 41     910.88415527  5.00000000E-08
  5 32 41     910.88415527  5.00000000E-08
  6 32 41     910.88415527  5.00000000E-09
  1 32 42     887.53015137  5.00000000E-06
  2 32 42     887.53015137  5.00000000E-07
  3 32 42     887.53015137  5.00000000E-07
  4 32 42     887.53015137  5.00000000E-08
  5 32 42     887.53015137  5.00000000E-08
  6 32 42     887.53015137  5.00000000E-09
  1 32 43     916.62890625  5.00000000E-06
  2 32 43     916.62890625  5.00000000E-07
  3 32 43     916.62890625  5.00000000E-07
  4 32 43     916.62890625  5.00000000E-08
  5 32 43     916.62890625  5.00000000E-08
  6 32 43     916.62890625  5.00000000E-09
  1 32 44     921.26110840  5.00000000E-06
  2 32 44     921.26110840  5.00000000E-07
  3 32 44     921.26110840  5.00000000E-07
  4 32 44     921.26110840  5.00000000E-08
  5 32 44     921.26110840  5.00000000E-08
  6 32 44     921.26110840  5.00000000E-09
  2 33 30     852.58471680  5.00000000E-07
  3 33 30     852.58471680  5.00000000E-07
  4 33 30     852.58471680  5.00000000E-08
  5 33 30     852.58471680  5.00000000E-08
  6 33 30     852.58471680  5.00000000E-09
  2 33 31     851.78369141  5.00000000E-07
  3 33 31     851.78369141  5.00000000E-07
  4 33 31     851.78369141  5.00000000E-08
  5 33 31     851.78369141  5.00000000E-08
  6 33 31     851.78369141  5.00000000E-09
  2 33 32     863.53015137  5.00000000E-07
  3 33 32     863.53015137  5.00000000E-07
  4 33 32     863.53015137  5.00000000E-08
  5 33 32     863.53015137  5.00000000E-08
  6 33 32     863.53015137  5.00000000E-09
  2 33 33     870.17462158  5.00000000E-07
  3 33 33     870.17462158  5.00000000E-07
  4 33 33     870.17462158  5.00000000E-08
  5 33 33     870.17462158  5.00000000E-08
  6 33 33     870.17462158  5.00000000E-09
  2 33 34     863.51507568  5.00000000E-07
  3 33 34     863.51507568  5.00000000E-07
  4 33 34     863.51507568  5.00000000E-08
  5 33 34     863.51507568  5.00000000E-08
  6 33 34     863.51507568  5.00000000E-09
  1 33 35     870.66503906  5.00000000E-06
  2 33 35     870.66503906  5.00000000E-07
  3 33 35     870.66503906  5.00000000E-07
  4 33 35     870.66503906  5.00000000E-08
  5 33 35     870.66503906  5.00000000E-08
  6 33 35     870.66503906  5.00000000E-09
  1 33 36     883.51208496  5.00000000E-06
  2 33 36     883.51208496  5.00000000E-07
  3 33 36     883.51208496  5.00000000E-07
  4 33 36     883.51208496  5.00000000E-08
  5 33 36     883.51208496  5.00000000E-08
  6 33 36     883.51208496  5.00000000E-09
  1 33 37     903.26806641  5.00000000E-06
  2 33 37     903.26806641  5.00000000E-07
  3 33 37     903.26806641  5.00000000E-07
  4 33 37     903.26806641  5.00000000E-08
  5 33 37     903.26806641  5.00000000E-08
  6 33 37     903.26806641  5.00000000E-09
  1 33 38     912.63128662  5.00000000E-06
  2 33 38     912.63128662  5.00000000E-07
  3 33 38     912.63128662  5.00000000E-07
  4 33 38     912.63128662  5.00000000E-08
  5 33 38     912.63128662  5.00000000E-08
  6 33 38     912.63128662  5.00000000E-09
  1 33 39     915.53265381  5.00000000E-06
  2 33 39     915.53265381  5.00000000E-07
  3 33 39     915.53265381  5.00000000E-07
  4 33 39     915.53265381  5.00000000E-08
  5 33 39     915.53265381  5.00000000E-08
  6 33 39     915.53265381  5.00000000E-09
  6 33 40     919.45568848  5.00000000E-09
  6 33 41     924.06658936  5.00000000E-09
  6 33 42     927.17633057  5.00000000E-09
  1 34 21     872.40313721  5.00000000E-06
  2 34 21     872.40313721  5.00000000E-07
  3 34 21     872.40313721  5.00000000E-07
  4 34 21     872.40313721  5.00000000E-08
  5 34 21     872.40313721  5.00000000E-08
  6 34 21     872.40313721  5.00000000E-09
  1 34 22     876.53326416  5.00000000E-06
  2 34 22     876.53326416  5.00000000E-07
  3 34 22     876.53326416  5.00000000E-07
  4 34 22     876.53326416  5.00000000E-08
  5 34 22     876.53326416  5.00000000E-08
  6 34 22     876.53326416  5.00000000E-09
  1 34 23     880.00000000  5.00000000E-06
  2 34 23     880.00000000  5.00000000E-07
  3 34 23     880.00000000  5.00000000E-07
  4 34 23     880.00000000  5.00000000E-08
  5 34 23     880.00000000  5.00000000E-08
  6 34 23     880.00000000  5.00000000E-09
  1 34 24     883.10375977  5.00000000E-06
  2 34 24     883.10375977  5.00000000E-07
  3 34 24     883.10375977  5.00000000E-07
  4 34 24     883.10375977  5.00000000E-08
  5 34 24     883.10375977  5.00000000E-08
  6 34 24     883.10375977  5.00000000E-09
  1 34 25     885.79632568  5.00000000E-06
  2 34 25     885.79632568  5.00000000E-07
  3 34 25     885.79632568  5.00000000E-07
  4 34 25     885.79632568  5.00000000E-08
  5 34 25     885.79632568  5.00000000E-08
  6 34 25     885.79632568  5.00000000E-09
  1 34 26     887.79986572  5.00000000E-06
  2 34 26     887.79986572  5.00000000E-07
  3 34 26     887.79986572  5.00000000E-07
  4 34 26     887.79986572  5.00000000E-08
  5 34 26     887.79986572  5.00000000E-08
  6 34 26     887.79986572  5.00000000E-09
  1 34 27     890.57568359  5.00000000E-06
  2 34 27     890.57568359  5.00000000E-07
  3 34 27     890.57568359  5.00000000E-07
  4 34 27     890.57568359  5.00000000E-08
  5 34 27     890.57568359  5.00000000E-08
  6 34 27     890.57568359  5.00000000E-09
  1 34 28     892.38500977  5.00000000E-06
  2 34 28     892.38500977  5.00000000E-07
  3 34 28     892.38500977  5.00000000E-07
  4 34 28     892.38500977  5.00000000E-08
  5 34 28     892.38500977  5.00000000E-08
  6 34 28     892.38500977  5.00000000E-09
  1 34 29     893.88574219  5.00000000E-06
  2 34 29     893.88574219  5.00000000E-07
  3 34 29     893.88574219  5.00000000E-07
  4 34 29     893.88574219  5.00000000E-08
  5 34 29     893.88574219  5.00000000E-08
  6 34 29     893.88574219  5.00000000E-09
  6 34 30     897.08740234  5.00000000E-09
  6 34 31     898.79327393  5.00000000E-09
  6 34 32     901.22882080  5.00000000E-09
  6 34 33     902.82171631  5.00000000E-09
  1 35 19     867.46704102  5.00000000E-06
  2 35 19     867.46704102  5.00000000E-07
  3 35 19     867.46704102  5.00000000E-07
  4 35 19     867.46704102  5.00000000E-08
  5 35 19     867.46704102  5.00000000E-08
  6 35 19     867.46704102  5.00000000E-09
  6 35 20     870.73571777  5.00000000E-09
  6 35 21     873.93835449  5.00000000E-09
  6 35 22     879.03143311  5.00000000E-09
END period  1

