# File generated by Flopy version 3.3.2 on 06/08/2021 at 13:55:56.
BEGIN options
  PRINT_INPUT
  PRINT_FLOWS
  SAVE_FLOWS
END options

BEGIN dimensions
  MAXBOUND  290
END dimensions

BEGIN period  1
  1 16 40     664.42529297       0.10000000
  1 28 5     667.75769043       0.07500000
  1 31 10     751.70074463       0.10000000
  1 9 10     621.00000000       0.10000000
  1 30 42     856.92840576       0.10000000
  1 12 15     712.91082764       0.10000000
  1 26 26     751.97332764       0.02500000
  1 26 35     810.18206787       0.02500000
  1 23 29     767.00000000       0.02500000
  1 15 25     653.00000000       0.05000000
  1 27 8     681.00000000       0.05000000
  1 19 13     719.41259766       0.10000000
  1 16 26     669.28955078       0.05000000
  1 27 26     757.38000488       0.02500000
  1 19 31     716.21374512       0.05000000
  1 28 9     724.86193848       0.07500000
  1 30 28     820.36053467       0.05000000
  1 20 5     632.50756836       0.10000000
  1 31 14     825.28558350       0.10000000
  1 34 16     880.23547363       0.10000000
  1 11 23     640.03942871       0.10000000
  1 26 21     801.88745117       0.05000000
  1 16 12     673.57348633       0.10000000
  1 27 21     806.00659180       0.05000000
  1 18 40     739.13568115       0.10000000
  1 30 14     822.05932617       0.10000000
  1 30 41     876.21246338       0.10000000
  1 26 7     686.20892334       0.05000000
  1 11 18     640.26580811       0.10000000
  1 23 28     749.39666748       0.02500000
  1 15 24     659.00000000       0.07500000
  1 27 7     669.00000000       0.05000000
  1 30 9     731.49096680       0.10000000
  1 22 14     755.01831055       0.05000000
  1 22 41     734.25457764       0.05000000
  1 11 13     657.69226074       0.10000000
  1 34 15     829.69287109       0.10000000
  1 26 11     747.18286133       0.05000000
  1 11 22     639.73699951       0.10000000
  1 25 42     763.31610107       0.05000000
  1 17 38     727.00000000       0.05000000
  1 18 21     735.00000000       0.10000000
  1 29 21     830.45697021       0.10000000
  1 18 30     704.81573486       0.05000000
  1 18 39     759.34112549       0.07500000
  1 30 13     801.10308838       0.10000000
  1 22 27     751.60668945       0.02500000
  1 29 7     684.25000000       0.10000000
  1 29 16     894.80572510       0.10000000
  1 10 12     647.55371094       0.10000000
  1 18 25     711.21600342       0.05000000
  1 29 25     789.97399902       0.05000000
  1 10 21     642.19995117       0.10000000
  1 30 8     713.71575928       0.10000000
  1 26 10     723.00000000       0.05000000
  1 25 32     787.00000000       0.02500000
  1 17 28     685.35815430       0.05000000
  1 17 37     723.00000000       0.05000000
  1 29 11     749.00000000       0.10000000
  1 29 20     827.88708496       0.10000000
  1 18 29     703.00000000       0.05000000
  1 29 29     813.00000000       0.05000000
  1 18 38     763.00000000       0.05000000
  1 30 12     790.83703613       0.10000000
  1 28 42     800.19042969       0.07500000
  1 21 21     764.74645996       0.07500000
  1 24 26     747.26550293       0.02500000
  1 33 13     795.29290771       0.10000000
  1 25 9     703.38922119       0.05000000
  1 17 14     699.97265625       0.10000000
  1 25 27     751.20672607       0.02500000
  1 17 41     670.97192383       0.10000000
  1 29 6     683.43640137       0.10000000
  1 10 11     631.00000000       0.10000000
  1 18 24     707.04791260       0.07500000
  1 29 24     788.04852295       0.07500000
  1 20 33     753.95068359       0.05000000
  1 31 42     897.00000000       0.10000000
  1 20 42     691.06097412       0.10000000
  1 21 25     729.35589600       0.03750000
  1 13 21     676.02581787       0.10000000
  1 24 21     785.07910156       0.05000000
  1 24 30     777.60559082       0.02500000
  1 32 43     977.62890625       0.10000000
  1 21 43     696.25061035       0.07500000
  1 25 4     646.06817627       0.05000000
  1 17 27     677.46789551       0.05000000
  1 17 36     727.75537109       0.05000000
  1 29 10     747.38128662       0.10000000
  1 20 28     722.50177002       0.05000000
  1 31 28     834.70764160       0.05000000
  1 32 11     748.73968506       0.10000000
  1 33 12     770.99688721       0.10000000
  1 24 43     755.19152832       0.05000000
  1 25 8     730.04821777       0.05000000
  1 14 17     733.00000000       0.10000000
  1 17 13     674.57629395       0.10000000
  1 25 26     749.00000000       0.02500000
  1 18 5     619.00000000       0.10000000
  1 16 35     700.12371826       0.05000000
  1 10 10     625.22821045       0.10000000
  1 19 40     739.89892578       0.10000000
  1 20 14     726.26269531       0.10000000
  1 28 27     784.64477539       0.03750000
  1 12 19     664.40911865       0.10000000
  1 20 41     710.70361328       0.10000000
  1 31 41     928.63189697       0.10000000
  1 21 6     649.15692139       0.07500000
  1 32 15     864.75311279       0.10000000
  1 24 11     720.93713379       0.05000000
  1 13 11     649.62268066       0.10000000
  1 24 29     770.88104248       0.02500000
  1 25 3     658.62255859       0.05000000
  1 14 12     654.36297607       0.10000000
  1 16 21     701.00000000       0.10000000
  1 16 39     656.33398438       0.07500000
  1 20 9     713.88287354       0.10000000
  1 31 9     715.07501221       0.10000000
  1 28 31     798.28485107       0.03750000
  1 12 14     695.22674561       0.10000000
  1 20 27     719.39038086       0.05000000
  1 12 23     649.02575684       0.10000000
  1 21 1     623.16436768       0.07500000
  1 32 10     761.04809570       0.10000000
  1 13 15     719.31817627       0.10000000
  1 25 7     723.00000000       0.05000000
  1 16 25     671.35931396       0.05000000
  1 19 21     744.75268555       0.10000000
  1 19 30     711.77441406       0.05000000
  1 31 13     783.78564453       0.10000000
  1 28 26     777.02331543       0.03750000
  1 12 18     674.14245605       0.10000000
  1 21 14     742.00939941       0.07500000
  1 32 14     842.02117920       0.10000000
  1 35 16     866.59875488       0.10000000
  1 23 32     773.84588623       0.02500000
  1 23 41     766.30853271       0.05000000
  1 16 38     659.50122070       0.05000000
  1 19 34     767.40747070       0.05000000
  1 19 43     669.13092041       0.10000000
  1 20 8     713.00000000       0.10000000
  1 28 21     820.07885742       0.07500000
  1 12 13     665.00000000       0.10000000
  1 20 26     732.10119629       0.05000000
  1 12 22     650.59484863       0.10000000
  1 26 42     764.61840820       0.05000000
  1 23 27     754.10253906       0.02500000
  1 27 6     665.00000000       0.05000000
  1 16 15     734.30780029       0.10000000
  1 16 24     674.92749023       0.07500000
  1 19 29     715.64666748       0.05000000
  1 19 38     779.85223389       0.05000000
  1 31 12     785.69055176       0.10000000
  1 34 14     818.41632080       0.10000000
  1 23 13     746.96923828       0.05000000
  1 35 15     851.90447998       0.10000000
  1 23 31     771.00000000       0.02500000
  1 23 40     786.22644043       0.05000000
  1 19 24     717.43157959       0.07500000
  1 30 30     820.38433838       0.05000000
  1 22 26     733.00000000       0.02500000
  1 26 5     652.59497070       0.05000000
  1 23 26     735.84112549       0.02500000
  1 27 5     656.89831543       0.05000000
  1 16 14     700.55291748       0.10000000
  1 8 10     621.00000000       0.10000000
  1 18 42     668.32763672       0.10000000
  1 29 42     825.71942139       0.10000000
  1 30 16     895.79370117       0.10000000
  1 22 21     775.38830566       0.05000000
  1 11 11     638.52301025       0.10000000
  1 26 9     696.77441406       0.05000000
  1 26 27     761.31359863       0.02500000
  1 23 3     638.92846680       0.05000000
  1 26 36     817.32629395       0.02500000
  1 23 12     747.84136963       0.05000000
  1 4 8     609.00000000       0.10000000
  1 23 21     783.61273193       0.05000000
  1 15 26     652.21099854       0.05000000
  1 18 28     689.00000000       0.05000000
  1 29 28     802.06695557       0.05000000
  1 19 5     621.61260986       0.10000000
  1 18 37     755.99200439       0.05000000
  1 30 11     754.02429199       0.10000000
  1 30 20     845.00000000       0.10000000
  1 22 16     771.83673096       0.05000000
  1 30 29     817.34216309       0.05000000
  1 22 25     744.07080078       0.02500000
  1 22 43     712.63232422       0.05000000
  1 26 4     647.96411133       0.05000000
  1 11 15     705.69256592       0.10000000
  1 34 17     919.00000000       0.10000000
  1 14 26     649.00000000       0.05000000
  1 15 12     656.06781006       0.10000000
  1 17 40     714.18640137       0.10000000
  1 29 23     814.94824219       0.10000000
  1 29 32     815.00811768       0.05000000
  1 18 41     694.55053711       0.10000000
  1 22 2     628.71618652       0.05000000
  1 30 15     844.56433105       0.10000000
  1 30 24     823.16265869       0.07500000
  1 11 10     638.89154053       0.10000000
  1 32 42     948.53015137       0.10000000
  1 26 8     704.67761230       0.05000000
  1 21 42     699.91754150       0.07500000
  1 11 19     633.41766357       0.10000000
  1 23 2     641.05871582       0.05000000
  1 14 21     685.52606201       0.10000000
  1 25 21     790.25524902       0.05000000
  1 17 26     679.06311035       0.05000000
  1 29 9     732.86773682       0.10000000
  1 18 36     757.91632080       0.05000000
  1 30 10     739.89440918       0.10000000
  1 22 15     753.00000000       0.05000000
  1 11 14     689.54876709       0.10000000
  1 33 11     792.45788574       0.10000000
  1 24 42     765.12579346       0.05000000
  1 14 16     742.22326660       0.10000000
  1 14 25     645.76843262       0.05000000
  1 17 21     716.70367432       0.10000000
  1 17 39     724.37347412       0.07500000
  1 18 13     681.00000000       0.10000000
  1 29 31     813.95330811       0.05000000
  1 22 1     623.30700684       0.05000000
  1 20 40     750.59039307       0.10000000
  1 13 19     694.52514648       0.10000000
  1 21 41     717.43640137       0.07500000
  1 33 15     859.09991455       0.10000000
  1 25 11     734.87011719       0.05000000
  1 29 8     689.26715088       0.10000000
  1 10 13     659.00000000       0.10000000
  1 10 22     645.65740967       0.10000000
  1 28 30     791.77490234       0.03750000
  1 21 9     705.00000000       0.07500000
  1 13 14     703.59869385       0.10000000
  1 24 32     779.00000000       0.02500000
  1 29 12     783.46215820       0.10000000
  1 27 42     776.58715820       0.05000000
  1 28 25     787.71917725       0.03750000
  1 20 21     756.15203857       0.10000000
  1 20 30     728.15081787       0.05000000
  1 20 39     781.25158691       0.07500000
  1 32 13     839.00000000       0.10000000
  1 13 18     699.78167725       0.10000000
  1 24 27     745.46820068       0.02500000
  1 33 14     841.00000000       0.10000000
  1 25 10     701.00000000       0.05000000
  1 17 24     687.92181396       0.07500000
  1 19 33     749.00000000       0.05000000
  1 19 42     683.76489258       0.10000000
  1 28 29     790.40301514       0.03750000
  1 20 34     768.15881348       0.05000000
  1 31 43     936.53869629       0.10000000
  1 21 8     701.69085693       0.07500000
  1 20 43     683.37927246       0.10000000
  1 13 13     681.89251709       0.10000000
  1 21 26     736.37353516       0.03750000
  1 5 9     611.00000000       0.10000000
  1 13 22     664.05346680       0.10000000
  1 24 31     778.64807129       0.02500000
  1 16 41     661.00000000       0.10000000
  1 28 6     682.17553711       0.07500000
  1 31 11     780.06384277       0.10000000
  1 9 11     625.75695801       0.10000000
  1 31 20     858.84381104       0.10000000
  1 20 29     728.22497559       0.05000000
  1 32 12     791.86657715       0.10000000
  1 13 17     734.18194580       0.10000000
  1 17 5     617.00000000       0.10000000
  1 15 35     653.00000000       0.05000000
  1 27 9     711.71008301       0.05000000
  1 19 14     723.59240723       0.10000000
  1 16 27     677.84930420       0.05000000
  1 27 27     754.12005615       0.02500000
  1 19 23     730.93389893       0.10000000
  1 27 36     821.54711914       0.02500000
  1 19 32     723.00000000       0.05000000
  1 28 10     738.25939941       0.07500000
  1 19 41     698.13818359       0.10000000
  1 20 6     641.17352295       0.10000000
  1 28 28     770.50885010       0.03750000
  1 12 11     637.00000000       0.10000000
  1 21 7     671.09191895       0.07500000
  1 24 3     639.56262207       0.05000000
  1 24 12     737.35705566       0.05000000
  1 13 12     651.72229004       0.10000000
  1 5 8     609.00000000       0.10000000
  1 15 21     704.04510498       0.10000000
  1 23 43     727.40350342       0.05000000
  1 16 13     675.23046875       0.10000000
END period  1

