# File generated by Flopy version 3.3.2 on 02/17/2021 at 10:18:38.
BEGIN options
  SAVE_FLOWS
END options

BEGIN griddata
  icelltype
    CONSTANT  1
  k
    CONSTANT  1.00000000E-06
END griddata

