# File generated by Flopy version 3.3.2 on 02/16/2021 at 14:18:42.
BEGIN options
  COMPLEXITY  simple
END options

