# File generated by Flopy version 3.3.2 on 02/17/2021 at 10:18:37.
BEGIN options
  COMPLEXITY  simple
END options

