# File generated by Flopy version 3.3.2 on 02/07/2021 at 14:54:10.
BEGIN options
  COMPLEXITY  simple
END options

