# File generated by Flopy version 3.3.2 on 02/16/2021 at 14:18:42.
BEGIN options
END options

BEGIN packages
  DIS6  modelo_Norte.dis  dis
  RCH6  modelo_Norte.rch  rch
  IC6  modelo_Norte.ic  ic
  NPF6  modelo_Norte.npf  npf
  OC6  modelo_Norte.oc  oc
END packages

