# File generated by Flopy version 3.3.2 on 02/07/2021 at 14:54:10.
BEGIN griddata
  strt  LAYERED
    INTERNAL  FACTOR  1.0
         721.00000000     693.00000000     664.00000000     636.00000000     621.00000000     617.00000000     620.00000000     620.00000000     619.00000000     632.00000000     642.00000000     652.00000000     661.00000000     649.00000000     629.00000000     623.00000000     626.00000000     627.00000000     627.00000000     623.00000000
         623.00000000     624.00000000     634.00000000     636.00000000     633.00000000     635.00000000     638.00000000     641.00000000     659.00000000     682.00000000     706.00000000     726.00000000     747.00000000     762.00000000     757.00000000     753.00000000     761.00000000     766.00000000     774.00000000     775.00000000
         769.00000000     767.00000000     766.00000000     756.00000000     747.00000000     748.00000000     749.00000000     752.00000000     757.00000000     748.00000000     742.00000000     744.00000000     747.00000000     751.00000000     753.00000000     760.00000000     773.00000000     777.00000000     781.00000000     781.00000000
         782.00000000     784.00000000     785.00000000     792.00000000     797.00000000     806.00000000     810.00000000     811.00000000     814.00000000     817.00000000     826.00000000     836.00000000     839.00000000     844.00000000     846.00000000     850.00000000     854.00000000     857.00000000     860.00000000     858.00000000
         855.00000000     860.00000000     860.00000000     851.00000000     830.00000000     808.00000000     811.00000000     823.00000000     844.00000000     872.00000000     903.00000000     931.00000000
         721.00000000     693.00000000     664.00000000     636.00000000     621.00000000     617.00000000     620.00000000     620.00000000     619.00000000     632.00000000     642.00000000     652.00000000     661.00000000     649.00000000     629.00000000     623.00000000     626.00000000     627.00000000     627.00000000     623.00000000
         623.00000000     624.00000000     634.00000000     636.00000000     633.00000000     635.00000000     638.00000000     641.00000000     659.00000000     682.00000000     706.00000000     726.00000000     747.00000000     762.00000000     757.00000000     753.00000000     761.00000000     766.00000000     774.00000000     775.00000000
         769.00000000     767.00000000     766.00000000     756.00000000     747.00000000     748.00000000     749.00000000     752.00000000     757.00000000     748.00000000     742.00000000     744.00000000     747.00000000     751.00000000     753.00000000     760.00000000     773.00000000     777.00000000     781.00000000     781.00000000
         782.00000000     784.00000000     785.00000000     792.00000000     797.00000000     806.00000000     810.00000000     811.00000000     814.00000000     817.00000000     826.00000000     836.00000000     839.00000000     844.00000000     846.00000000     850.00000000     854.00000000     857.00000000     860.00000000     858.00000000
         855.00000000     860.00000000     860.00000000     851.00000000     830.00000000     808.00000000     811.00000000     823.00000000     844.00000000     872.00000000     903.00000000     931.00000000
         721.00000000     693.00000000     664.00000000     636.00000000     621.00000000     617.00000000     620.00000000     620.00000000     619.00000000     632.00000000     642.00000000     652.00000000     661.00000000     649.00000000     629.00000000     623.00000000     626.00000000     627.00000000     627.00000000     623.00000000
         623.00000000     624.00000000     634.00000000     636.00000000     633.00000000     635.00000000     638.00000000     641.00000000     659.00000000     682.00000000     706.00000000     726.00000000     747.00000000     762.00000000     757.00000000     753.00000000     761.00000000     766.00000000     774.00000000     775.00000000
         769.00000000     767.00000000     766.00000000     756.00000000     747.00000000     748.00000000     749.00000000     752.00000000     757.00000000     748.00000000     742.00000000     744.00000000     747.00000000     751.00000000     753.00000000     760.00000000     773.00000000     777.00000000     781.00000000     781.00000000
         782.00000000     784.00000000     785.00000000     792.00000000     797.00000000     806.00000000     810.00000000     811.00000000     814.00000000     817.00000000     826.00000000     836.00000000     839.00000000     844.00000000     846.00000000     850.00000000     854.00000000     857.00000000     860.00000000     858.00000000
         855.00000000     860.00000000     860.00000000     851.00000000     830.00000000     808.00000000     811.00000000     823.00000000     844.00000000     872.00000000     903.00000000     931.00000000
         721.00000000     693.00000000     664.00000000     636.00000000     621.00000000     617.00000000     620.00000000     620.00000000     619.00000000     632.00000000     642.00000000     652.00000000     661.00000000     649.00000000     629.00000000     623.00000000     626.00000000     627.00000000     627.00000000     623.00000000
         623.00000000     624.00000000     634.00000000     636.00000000     633.00000000     635.00000000     638.00000000     641.00000000     659.00000000     682.00000000     706.00000000     726.00000000     747.00000000     762.00000000     757.00000000     753.00000000     761.00000000     766.00000000     774.00000000     775.00000000
         769.00000000     767.00000000     766.00000000     756.00000000     747.00000000     748.00000000     749.00000000     752.00000000     757.00000000     748.00000000     742.00000000     744.00000000     747.00000000     751.00000000     753.00000000     760.00000000     773.00000000     777.00000000     781.00000000     781.00000000
         782.00000000     784.00000000     785.00000000     792.00000000     797.00000000     806.00000000     810.00000000     811.00000000     814.00000000     817.00000000     826.00000000     836.00000000     839.00000000     844.00000000     846.00000000     850.00000000     854.00000000     857.00000000     860.00000000     858.00000000
         855.00000000     860.00000000     860.00000000     851.00000000     830.00000000     808.00000000     811.00000000     823.00000000     844.00000000     872.00000000     903.00000000     931.00000000
         721.00000000     693.00000000     664.00000000     636.00000000     621.00000000     617.00000000     620.00000000     620.00000000     619.00000000     632.00000000     642.00000000     652.00000000     661.00000000     649.00000000     629.00000000     623.00000000     626.00000000     627.00000000     627.00000000     623.00000000
         623.00000000     624.00000000     634.00000000     636.00000000     633.00000000     635.00000000     638.00000000     641.00000000     659.00000000     682.00000000     706.00000000     726.00000000     747.00000000     762.00000000     757.00000000     753.00000000     761.00000000     766.00000000     774.00000000     775.00000000
         769.00000000     767.00000000     766.00000000     756.00000000     747.00000000     748.00000000     749.00000000     752.00000000     757.00000000     748.00000000     742.00000000     744.00000000     747.00000000     751.00000000     753.00000000     760.00000000     773.00000000     777.00000000     781.00000000     781.00000000
         782.00000000     784.00000000     785.00000000     792.00000000     797.00000000     806.00000000     810.00000000     811.00000000     814.00000000     817.00000000     826.00000000     836.00000000     839.00000000     844.00000000     846.00000000     850.00000000     854.00000000     857.00000000     860.00000000     858.00000000
         855.00000000     860.00000000     860.00000000     851.00000000     830.00000000     808.00000000     811.00000000     823.00000000     844.00000000     872.00000000     903.00000000     931.00000000
         721.00000000     693.00000000     664.00000000     636.00000000     621.00000000     617.00000000     620.00000000     620.00000000     619.00000000     632.00000000     642.00000000     652.00000000     661.00000000     649.00000000     629.00000000     623.00000000     626.00000000     627.00000000     627.00000000     623.00000000
         623.00000000     624.00000000     634.00000000     636.00000000     633.00000000     635.00000000     638.00000000     641.00000000     659.00000000     682.00000000     706.00000000     726.00000000     747.00000000     762.00000000     757.00000000     753.00000000     761.00000000     766.00000000     774.00000000     775.00000000
         769.00000000     767.00000000     766.00000000     756.00000000     747.00000000     748.00000000     749.00000000     752.00000000     757.00000000     748.00000000     742.00000000     744.00000000     747.00000000     751.00000000     753.00000000     760.00000000     773.00000000     777.00000000     781.00000000     781.00000000
         782.00000000     784.00000000     785.00000000     792.00000000     797.00000000     806.00000000     810.00000000     811.00000000     814.00000000     817.00000000     826.00000000     836.00000000     839.00000000     844.00000000     846.00000000     850.00000000     854.00000000     857.00000000     860.00000000     858.00000000
         855.00000000     860.00000000     860.00000000     851.00000000     830.00000000     808.00000000     811.00000000     823.00000000     844.00000000     872.00000000     903.00000000     931.00000000
         721.00000000     693.00000000     664.00000000     636.00000000     621.00000000     617.00000000     620.00000000     620.00000000     619.00000000     632.00000000     642.00000000     652.00000000     661.00000000     649.00000000     629.00000000     623.00000000     626.00000000     627.00000000     627.00000000     623.00000000
         623.00000000     624.00000000     634.00000000     636.00000000     633.00000000     635.00000000     638.00000000     641.00000000     659.00000000     682.00000000     706.00000000     726.00000000     747.00000000     762.00000000     757.00000000     753.00000000     761.00000000     766.00000000     774.00000000     775.00000000
         769.00000000     767.00000000     766.00000000     756.00000000     747.00000000     748.00000000     749.00000000     752.00000000     757.00000000     748.00000000     742.00000000     744.00000000     747.00000000     751.00000000     753.00000000     760.00000000     773.00000000     777.00000000     781.00000000     781.00000000
         782.00000000     784.00000000     785.00000000     792.00000000     797.00000000     806.00000000     810.00000000     811.00000000     814.00000000     817.00000000     826.00000000     836.00000000     839.00000000     844.00000000     846.00000000     850.00000000     854.00000000     857.00000000     860.00000000     858.00000000
         855.00000000     860.00000000     860.00000000     851.00000000     830.00000000     808.00000000     811.00000000     823.00000000     844.00000000     872.00000000     903.00000000     931.00000000
         721.00000000     693.00000000     664.00000000     636.00000000     621.00000000     617.00000000     620.00000000     620.00000000     619.00000000     632.00000000     642.00000000     652.00000000     661.00000000     649.00000000     629.00000000     623.00000000     626.00000000     627.00000000     627.00000000     623.00000000
         623.00000000     624.00000000     634.00000000     636.00000000     633.00000000     635.00000000     638.00000000     641.00000000     659.00000000     682.00000000     706.00000000     726.00000000     747.00000000     762.00000000     757.00000000     753.00000000     761.00000000     766.00000000     774.00000000     775.00000000
         769.00000000     767.00000000     766.00000000     756.00000000     747.00000000     748.00000000     749.00000000     752.00000000     757.00000000     748.00000000     742.00000000     744.00000000     747.00000000     751.00000000     753.00000000     760.00000000     773.00000000     777.00000000     781.00000000     781.00000000
         782.00000000     784.00000000     785.00000000     792.00000000     797.00000000     806.00000000     810.00000000     811.00000000     814.00000000     817.00000000     826.00000000     836.00000000     839.00000000     844.00000000     846.00000000     850.00000000     854.00000000     857.00000000     860.00000000     858.00000000
         855.00000000     860.00000000     860.00000000     851.00000000     830.00000000     808.00000000     811.00000000     823.00000000     844.00000000     872.00000000     903.00000000     931.00000000
         721.00000000     693.00000000     664.00000000     636.00000000     621.00000000     617.00000000     620.00000000     620.00000000     619.00000000     632.00000000     642.00000000     652.00000000     661.00000000     649.00000000     629.00000000     623.00000000     626.00000000     627.00000000     627.00000000     623.00000000
         623.00000000     624.00000000     634.00000000     636.00000000     633.00000000     635.00000000     638.00000000     641.00000000     659.00000000     682.00000000     706.00000000     726.00000000     747.00000000     762.00000000     757.00000000     753.00000000     761.00000000     766.00000000     774.00000000     775.00000000
         769.00000000     767.00000000     766.00000000     756.00000000     747.00000000     748.00000000     749.00000000     752.00000000     757.00000000     748.00000000     742.00000000     744.00000000     747.00000000     751.00000000     753.00000000     760.00000000     773.00000000     777.00000000     781.00000000     781.00000000
         782.00000000     784.00000000     785.00000000     792.00000000     797.00000000     806.00000000     810.00000000     811.00000000     814.00000000     817.00000000     826.00000000     836.00000000     839.00000000     844.00000000     846.00000000     850.00000000     854.00000000     857.00000000     860.00000000     858.00000000
         855.00000000     860.00000000     860.00000000     851.00000000     830.00000000     808.00000000     811.00000000     823.00000000     844.00000000     872.00000000     903.00000000     931.00000000
         721.00000000     693.00000000     664.00000000     636.00000000     621.00000000     617.00000000     620.00000000     620.00000000     619.00000000     632.00000000     642.00000000     652.00000000     661.00000000     649.00000000     629.00000000     623.00000000     626.00000000     627.00000000     627.00000000     623.00000000
         623.00000000     624.00000000     634.00000000     636.00000000     633.00000000     635.00000000     638.00000000     641.00000000     659.00000000     682.00000000     706.00000000     726.00000000     747.00000000     762.00000000     757.00000000     753.00000000     761.00000000     766.00000000     774.00000000     775.00000000
         769.00000000     767.00000000     766.00000000     756.00000000     747.00000000     748.00000000     749.00000000     752.00000000     757.00000000     748.00000000     742.00000000     744.00000000     747.00000000     751.00000000     753.00000000     760.00000000     773.00000000     777.00000000     781.00000000     781.00000000
         782.00000000     784.00000000     785.00000000     792.00000000     797.00000000     806.00000000     810.00000000     811.00000000     814.00000000     817.00000000     826.00000000     836.00000000     839.00000000     844.00000000     846.00000000     850.00000000     854.00000000     857.00000000     860.00000000     858.00000000
         855.00000000     860.00000000     860.00000000     851.00000000     830.00000000     808.00000000     811.00000000     823.00000000     844.00000000     872.00000000     903.00000000     931.00000000
         721.00000000     693.00000000     664.00000000     636.00000000     621.00000000     617.00000000     620.00000000     620.00000000     619.00000000     632.00000000     642.00000000     652.00000000     661.00000000     649.00000000     629.00000000     623.00000000     626.00000000     627.00000000     627.00000000     623.00000000
         623.00000000     624.00000000     634.00000000     636.00000000     633.00000000     635.00000000     638.00000000     641.00000000     659.00000000     682.00000000     706.00000000     726.00000000     747.00000000     762.00000000     757.00000000     753.00000000     761.00000000     766.00000000     774.00000000     775.00000000
         769.00000000     767.00000000     766.00000000     756.00000000     747.00000000     748.00000000     749.00000000     752.00000000     757.00000000     748.00000000     742.00000000     744.00000000     747.00000000     751.00000000     753.00000000     760.00000000     773.00000000     777.00000000     781.00000000     781.00000000
         782.00000000     784.00000000     785.00000000     792.00000000     797.00000000     806.00000000     810.00000000     811.00000000     814.00000000     817.00000000     826.00000000     836.00000000     839.00000000     844.00000000     846.00000000     850.00000000     854.00000000     857.00000000     860.00000000     858.00000000
         855.00000000     860.00000000     860.00000000     851.00000000     830.00000000     808.00000000     811.00000000     823.00000000     844.00000000     872.00000000     903.00000000     931.00000000
         721.00000000     693.00000000     664.00000000     636.00000000     621.00000000     617.00000000     620.00000000     620.00000000     619.00000000     632.00000000     642.00000000     652.00000000     661.00000000     649.00000000     629.00000000     623.00000000     626.00000000     627.00000000     627.00000000     623.00000000
         623.00000000     624.00000000     634.00000000     636.00000000     633.00000000     635.00000000     638.00000000     641.00000000     659.00000000     682.00000000     706.00000000     726.00000000     747.00000000     762.00000000     757.00000000     753.00000000     761.00000000     766.00000000     774.00000000     775.00000000
         769.00000000     767.00000000     766.00000000     756.00000000     747.00000000     748.00000000     749.00000000     752.00000000     757.00000000     748.00000000     742.00000000     744.00000000     747.00000000     751.00000000     753.00000000     760.00000000     773.00000000     777.00000000     781.00000000     781.00000000
         782.00000000     784.00000000     785.00000000     792.00000000     797.00000000     806.00000000     810.00000000     811.00000000     814.00000000     817.00000000     826.00000000     836.00000000     839.00000000     844.00000000     846.00000000     850.00000000     854.00000000     857.00000000     860.00000000     858.00000000
         855.00000000     860.00000000     860.00000000     851.00000000     830.00000000     808.00000000     811.00000000     823.00000000     844.00000000     872.00000000     903.00000000     931.00000000
         721.00000000     693.00000000     664.00000000     636.00000000     621.00000000     617.00000000     620.00000000     620.00000000     619.00000000     632.00000000     642.00000000     652.00000000     661.00000000     649.00000000     629.00000000     623.00000000     626.00000000     627.00000000     627.00000000     623.00000000
         623.00000000     624.00000000     634.00000000     636.00000000     633.00000000     635.00000000     638.00000000     641.00000000     659.00000000     682.00000000     706.00000000     726.00000000     747.00000000     762.00000000     757.00000000     753.00000000     761.00000000     766.00000000     774.00000000     775.00000000
         769.00000000     767.00000000     766.00000000     756.00000000     747.00000000     748.00000000     749.00000000     752.00000000     757.00000000     748.00000000     742.00000000     744.00000000     747.00000000     751.00000000     753.00000000     760.00000000     773.00000000     777.00000000     781.00000000     781.00000000
         782.00000000     784.00000000     785.00000000     792.00000000     797.00000000     806.00000000     810.00000000     811.00000000     814.00000000     817.00000000     826.00000000     836.00000000     839.00000000     844.00000000     846.00000000     850.00000000     854.00000000     857.00000000     860.00000000     858.00000000
         855.00000000     860.00000000     860.00000000     851.00000000     830.00000000     808.00000000     811.00000000     823.00000000     844.00000000     872.00000000     903.00000000     931.00000000
         721.00000000     693.00000000     664.00000000     636.00000000     621.00000000     617.00000000     620.00000000     620.00000000     619.00000000     632.00000000     642.00000000     652.00000000     661.00000000     649.00000000     629.00000000     623.00000000     626.00000000     627.00000000     627.00000000     623.00000000
         623.00000000     624.00000000     634.00000000     636.00000000     633.00000000     635.00000000     638.00000000     641.00000000     659.00000000     682.00000000     706.00000000     726.00000000     747.00000000     762.00000000     757.00000000     753.00000000     761.00000000     766.00000000     774.00000000     775.00000000
         769.00000000     767.00000000     766.00000000     756.00000000     747.00000000     748.00000000     749.00000000     752.00000000     757.00000000     748.00000000     742.00000000     744.00000000     747.00000000     751.00000000     753.00000000     760.00000000     773.00000000     777.00000000     781.00000000     781.00000000
         782.00000000     784.00000000     785.00000000     792.00000000     797.00000000     806.00000000     810.00000000     811.00000000     814.00000000     817.00000000     826.00000000     836.00000000     839.00000000     844.00000000     846.00000000     850.00000000     854.00000000     857.00000000     860.00000000     858.00000000
         855.00000000     860.00000000     860.00000000     851.00000000     830.00000000     808.00000000     811.00000000     823.00000000     844.00000000     872.00000000     903.00000000     931.00000000
         721.00000000     693.00000000     664.00000000     636.00000000     621.00000000     617.00000000     620.00000000     620.00000000     619.00000000     632.00000000     642.00000000     652.00000000     661.00000000     649.00000000     629.00000000     623.00000000     626.00000000     627.00000000     627.00000000     623.00000000
         623.00000000     624.00000000     634.00000000     636.00000000     633.00000000     635.00000000     638.00000000     641.00000000     659.00000000     682.00000000     706.00000000     726.00000000     747.00000000     762.00000000     757.00000000     753.00000000     761.00000000     766.00000000     774.00000000     775.00000000
         769.00000000     767.00000000     766.00000000     756.00000000     747.00000000     748.00000000     749.00000000     752.00000000     757.00000000     748.00000000     742.00000000     744.00000000     747.00000000     751.00000000     753.00000000     760.00000000     773.00000000     777.00000000     781.00000000     781.00000000
         782.00000000     784.00000000     785.00000000     792.00000000     797.00000000     806.00000000     810.00000000     811.00000000     814.00000000     817.00000000     826.00000000     836.00000000     839.00000000     844.00000000     846.00000000     850.00000000     854.00000000     857.00000000     860.00000000     858.00000000
         855.00000000     860.00000000     860.00000000     851.00000000     830.00000000     808.00000000     811.00000000     823.00000000     844.00000000     872.00000000     903.00000000     931.00000000
         721.00000000     693.00000000     664.00000000     636.00000000     621.00000000     617.00000000     620.00000000     620.00000000     619.00000000     632.00000000     642.00000000     652.00000000     661.00000000     649.00000000     629.00000000     623.00000000     626.00000000     627.00000000     627.00000000     623.00000000
         623.00000000     624.00000000     634.00000000     636.00000000     633.00000000     635.00000000     638.00000000     641.00000000     659.00000000     682.00000000     706.00000000     726.00000000     747.00000000     762.00000000     757.00000000     753.00000000     761.00000000     766.00000000     774.00000000     775.00000000
         769.00000000     767.00000000     766.00000000     756.00000000     747.00000000     748.00000000     749.00000000     752.00000000     757.00000000     748.00000000     742.00000000     744.00000000     747.00000000     751.00000000     753.00000000     760.00000000     773.00000000     777.00000000     781.00000000     781.00000000
         782.00000000     784.00000000     785.00000000     792.00000000     797.00000000     806.00000000     810.00000000     811.00000000     814.00000000     817.00000000     826.00000000     836.00000000     839.00000000     844.00000000     846.00000000     850.00000000     854.00000000     857.00000000     860.00000000     858.00000000
         855.00000000     860.00000000     860.00000000     851.00000000     830.00000000     808.00000000     811.00000000     823.00000000     844.00000000     872.00000000     903.00000000     931.00000000
         721.00000000     693.00000000     664.00000000     636.00000000     621.00000000     617.00000000     620.00000000     620.00000000     619.00000000     632.00000000     642.00000000     652.00000000     661.00000000     649.00000000     629.00000000     623.00000000     626.00000000     627.00000000     627.00000000     623.00000000
         623.00000000     624.00000000     634.00000000     636.00000000     633.00000000     635.00000000     638.00000000     641.00000000     659.00000000     682.00000000     706.00000000     726.00000000     747.00000000     762.00000000     757.00000000     753.00000000     761.00000000     766.00000000     774.00000000     775.00000000
         769.00000000     767.00000000     766.00000000     756.00000000     747.00000000     748.00000000     749.00000000     752.00000000     757.00000000     748.00000000     742.00000000     744.00000000     747.00000000     751.00000000     753.00000000     760.00000000     773.00000000     777.00000000     781.00000000     781.00000000
         782.00000000     784.00000000     785.00000000     792.00000000     797.00000000     806.00000000     810.00000000     811.00000000     814.00000000     817.00000000     826.00000000     836.00000000     839.00000000     844.00000000     846.00000000     850.00000000     854.00000000     857.00000000     860.00000000     858.00000000
         855.00000000     860.00000000     860.00000000     851.00000000     830.00000000     808.00000000     811.00000000     823.00000000     844.00000000     872.00000000     903.00000000     931.00000000
         721.00000000     693.00000000     664.00000000     636.00000000     621.00000000     617.00000000     620.00000000     620.00000000     619.00000000     632.00000000     642.00000000     652.00000000     661.00000000     649.00000000     629.00000000     623.00000000     626.00000000     627.00000000     627.00000000     623.00000000
         623.00000000     624.00000000     634.00000000     636.00000000     633.00000000     635.00000000     638.00000000     641.00000000     659.00000000     682.00000000     706.00000000     726.00000000     747.00000000     762.00000000     757.00000000     753.00000000     761.00000000     766.00000000     774.00000000     775.00000000
         769.00000000     767.00000000     766.00000000     756.00000000     747.00000000     748.00000000     749.00000000     752.00000000     757.00000000     748.00000000     742.00000000     744.00000000     747.00000000     751.00000000     753.00000000     760.00000000     773.00000000     777.00000000     781.00000000     781.00000000
         782.00000000     784.00000000     785.00000000     792.00000000     797.00000000     806.00000000     810.00000000     811.00000000     814.00000000     817.00000000     826.00000000     836.00000000     839.00000000     844.00000000     846.00000000     850.00000000     854.00000000     857.00000000     860.00000000     858.00000000
         855.00000000     860.00000000     860.00000000     851.00000000     830.00000000     808.00000000     811.00000000     823.00000000     844.00000000     872.00000000     903.00000000     931.00000000
         721.00000000     693.00000000     664.00000000     636.00000000     621.00000000     617.00000000     620.00000000     620.00000000     619.00000000     632.00000000     642.00000000     652.00000000     661.00000000     649.00000000     629.00000000     623.00000000     626.00000000     627.00000000     627.00000000     623.00000000
         623.00000000     624.00000000     634.00000000     636.00000000     633.00000000     635.00000000     638.00000000     641.00000000     659.00000000     682.00000000     706.00000000     726.00000000     747.00000000     762.00000000     757.00000000     753.00000000     761.00000000     766.00000000     774.00000000     775.00000000
         769.00000000     767.00000000     766.00000000     756.00000000     747.00000000     748.00000000     749.00000000     752.00000000     757.00000000     748.00000000     742.00000000     744.00000000     747.00000000     751.00000000     753.00000000     760.00000000     773.00000000     777.00000000     781.00000000     781.00000000