# File generated by Flopy version 3.3.2 on 02/16/2021 at 14:18:42.
BEGIN griddata
  strt  LAYERED
    INTERNAL  FACTOR  1.0
         715.00000000     680.00000000     648.00000000     622.00000000     615.00000000     613.00000000     615.00000000     613.00000000     611.00000000     617.00000000     623.00000000     625.00000000     647.00000000     642.00000000     630.00000000     624.00000000     632.00000000     632.00000000     629.00000000     624.00000000
         623.00000000     625.00000000     633.00000000     634.00000000     635.00000000     638.00000000     643.00000000     641.00000000     660.00000000     685.00000000     703.00000000     719.00000000     744.00000000     760.00000000     764.00000000     761.00000000     764.00000000     769.00000000     778.00000000     781.00000000
         775.00000000     771.00000000     767.00000000     758.00000000     754.00000000     754.00000000     755.00000000     756.00000000     758.00000000     751.00000000     747.00000000     754.00000000     769.00000000     786.00000000     787.00000000     797.00000000     813.00000000     820.00000000     828.00000000     838.00000000
         847.00000000     856.00000000     860.00000000     858.00000000     865.00000000     862.00000000     842.00000000     819.00000000     806.00000000     815.00000000     826.00000000     847.00000000     880.00000000     908.00000000     942.00000000
         715.00000000     680.00000000     648.00000000     622.00000000     615.00000000     613.00000000     615.00000000     613.00000000     611.00000000     617.00000000     623.00000000     625.00000000     647.00000000     642.00000000     630.00000000     624.00000000     632.00000000     632.00000000     629.00000000     624.00000000
         623.00000000     625.00000000     633.00000000     634.00000000     635.00000000     638.00000000     643.00000000     641.00000000     660.00000000     685.00000000     703.00000000     719.00000000     744.00000000     760.00000000     764.00000000     761.00000000     764.00000000     769.00000000     778.00000000     781.00000000
         775.00000000     771.00000000     767.00000000     758.00000000     754.00000000     754.00000000     755.00000000     756.00000000     758.00000000     751.00000000     747.00000000     754.00000000     769.00000000     786.00000000     787.00000000     797.00000000     813.00000000     820.00000000     828.00000000     838.00000000
         847.00000000     856.00000000     860.00000000     858.00000000     865.00000000     862.00000000     842.00000000     819.00000000     806.00000000     815.00000000     826.00000000     847.00000000     880.00000000     908.00000000     942.00000000
         715.00000000     680.00000000     648.00000000     622.00000000     615.00000000     613.00000000     615.00000000     613.00000000     611.00000000     617.00000000     623.00000000     625.00000000     647.00000000     642.00000000     630.00000000     624.00000000     632.00000000     632.00000000     629.00000000     624.00000000
         623.00000000     625.00000000     633.00000000     634.00000000     635.00000000     638.00000000     643.00000000     641.00000000     660.00000000     685.00000000     703.00000000     719.00000000     744.00000000     760.00000000     764.00000000     761.00000000     764.00000000     769.00000000     778.00000000     781.00000000
         775.00000000     771.00000000     767.00000000     758.00000000     754.00000000     754.00000000     755.00000000     756.00000000     758.00000000     751.00000000     747.00000000     754.00000000     769.00000000     786.00000000     787.00000000     797.00000000     813.00000000     820.00000000     828.00000000     838.00000000
         847.00000000     856.00000000     860.00000000     858.00000000     865.00000000     862.00000000     842.00000000     819.00000000     806.00000000     815.00000000     826.00000000     847.00000000     880.00000000     908.00000000     942.00000000
         715.00000000     680.00000000     648.00000000     622.00000000     615.00000000     613.00000000     615.00000000     613.00000000     611.00000000     617.00000000     623.00000000     625.00000000     647.00000000     642.00000000     630.00000000     624.00000000     632.00000000     632.00000000     629.00000000     624.00000000
         623.00000000     625.00000000     633.00000000     634.00000000     635.00000000     638.00000000     643.00000000     641.00000000     660.00000000     685.00000000     703.00000000     719.00000000     744.00000000     760.00000000     764.00000000     761.00000000     764.00000000     769.00000000     778.00000000     781.00000000
         775.00000000     771.00000000     767.00000000     758.00000000     754.00000000     754.00000000     755.00000000     756.00000000     758.00000000     751.00000000     747.00000000     754.00000000     769.00000000     786.00000000     787.00000000     797.00000000     813.00000000     820.00000000     828.00000000     838.00000000
         847.00000000     856.00000000     860.00000000     858.00000000     865.00000000     862.00000000     842.00000000     819.00000000     806.00000000     815.00000000     826.00000000     847.00000000     880.00000000     908.00000000     942.00000000
         715.00000000     680.00000000     648.00000000     622.00000000     615.00000000     613.00000000     615.00000000     613.00000000     611.00000000     617.00000000     623.00000000     625.00000000     647.00000000     642.00000000     630.00000000     624.00000000     632.00000000     632.00000000     629.00000000     624.00000000
         623.00000000     625.00000000     633.00000000     634.00000000     635.00000000     638.00000000     643.00000000     641.00000000     660.00000000     685.00000000     703.00000000     719.00000000     744.00000000     760.00000000     764.00000000     761.00000000     764.00000000     769.00000000     778.00000000     781.00000000
         775.00000000     771.00000000     767.00000000     758.00000000     754.00000000     754.00000000     755.00000000     756.00000000     758.00000000     751.00000000     747.00000000     754.00000000     769.00000000     786.00000000     787.00000000     797.00000000     813.00000000     820.00000000     828.00000000     838.00000000
         847.00000000     856.00000000     860.00000000     858.00000000     865.00000000     862.00000000     842.00000000     819.00000000     806.00000000     815.00000000     826.00000000     847.00000000     880.00000000     908.00000000     942.00000000
         715.00000000     680.00000000     648.00000000     622.00000000     615.00000000     613.00000000     615.00000000     613.00000000     611.00000000     617.00000000     623.00000000     625.00000000     647.00000000     642.00000000     630.00000000     624.00000000     632.00000000     632.00000000     629.00000000     624.00000000
         623.00000000     625.00000000     633.00000000     634.00000000     635.00000000     638.00000000     643.00000000     641.00000000     660.00000000     685.00000000     703.00000000     719.00000000     744.00000000     760.00000000     764.00000000     761.00000000     764.00000000     769.00000000     778.00000000     781.00000000
         775.00000000     771.00000000     767.00000000     758.00000000     754.00000000     754.00000000     755.00000000     756.00000000     758.00000000     751.00000000     747.00000000     754.00000000     769.00000000     786.00000000     787.00000000     797.00000000     813.00000000     820.00000000     828.00000000     838.00000000
         847.00000000     856.00000000     860.00000000     858.00000000     865.00000000     862.00000000     842.00000000     819.00000000     806.00000000     815.00000000     826.00000000     847.00000000     880.00000000     908.00000000     942.00000000
         715.00000000     680.00000000     648.00000000     622.00000000     615.00000000     613.00000000     615.00000000     613.00000000     611.00000000     617.00000000     623.00000000     625.00000000     647.00000000     642.00000000     630.00000000     624.00000000     632.00000000     632.00000000     629.00000000     624.00000000
         623.00000000     625.00000000     633.00000000     634.00000000     635.00000000     638.00000000     643.00000000     641.00000000     660.00000000     685.00000000     703.00000000     719.00000000     744.00000000     760.00000000     764.00000000     761.00000000     764.00000000     769.00000000     778.00000000     781.00000000
         775.00000000     771.00000000     767.00000000     758.00000000     754.00000000     754.00000000     755.00000000     756.00000000     758.00000000     751.00000000     747.00000000     754.00000000     769.00000000     786.00000000     787.00000000     797.00000000     813.00000000     820.00000000     828.00000000     838.00000000
         847.00000000     856.00000000     860.00000000     858.00000000     865.00000000     862.00000000     842.00000000     819.00000000     806.00000000     815.00000000     826.00000000     847.00000000     880.00000000     908.00000000     942.00000000
         715.00000000     680.00000000     648.00000000     622.00000000     615.00000000     613.00000000     615.00000000     613.00000000     611.00000000     617.00000000     623.00000000     625.00000000     647.00000000     642.00000000     630.00000000     624.00000000     632.00000000     632.00000000     629.00000000     624.00000000
         623.00000000     625.00000000     633.00000000     634.00000000     635.00000000     638.00000000     643.00000000     641.00000000     660.00000000     685.00000000     703.00000000     719.00000000     744.00000000     760.00000000     764.00000000     761.00000000     764.00000000     769.00000000     778.00000000     781.00000000
         775.00000000     771.00000000     767.00000000     758.00000000     754.00000000     754.00000000     755.00000000     756.00000000     758.00000000     751.00000000     747.00000000     754.00000000     769.00000000     786.00000000     787.00000000     797.00000000     813.00000000     820.00000000     828.00000000     838.00000000
         847.00000000     856.00000000     860.00000000     858.00000000     865.00000000     862.00000000     842.00000000     819.00000000     806.00000000     815.00000000     826.00000000     847.00000000     880.00000000     908.00000000     942.00000000
         715.00000000     680.00000000     648.00000000     622.00000000     615.00000000     613.00000000     615.00000000     613.00000000     611.00000000     617.00000000     623.00000000     625.00000000     647.00000000     642.00000000     630.00000000     624.00000000     632.00000000     632.00000000     629.00000000     624.00000000
         623.00000000     625.00000000     633.00000000     634.00000000     635.00000000     638.00000000     643.00000000     641.00000000     660.00000000     685.00000000     703.00000000     719.00000000     744.00000000     760.00000000     764.00000000     761.00000000     764.00000000     769.00000000     778.00000000     781.00000000
         775.00000000     771.00000000     767.00000000     758.00000000     754.00000000     754.00000000     755.00000000     756.00000000     758.00000000     751.00000000     747.00000000     754.00000000     769.00000000     786.00000000     787.00000000     797.00000000     813.00000000     820.00000000     828.00000000     838.00000000
         847.00000000     856.00000000     860.00000000     858.00000000     865.00000000     862.00000000     842.00000000     819.00000000     806.00000000     815.00000000     826.00000000     847.00000000     880.00000000     908.00000000     942.00000000
         715.00000000     680.00000000     648.00000000     622.00000000     615.00000000     613.00000000     615.00000000     613.00000000     611.00000000     617.00000000     623.00000000     625.00000000     647.00000000     642.00000000     630.00000000     624.00000000     632.00000000     632.00000000     629.00000000     624.00000000
         623.00000000     625.00000000     633.00000000     634.00000000     635.00000000     638.00000000     643.00000000     641.00000000     660.00000000     685.00000000     703.00000000     719.00000000     744.00000000     760.00000000     764.00000000     761.00000000     764.00000000     769.00000000     778.00000000     781.00000000
         775.00000000     771.00000000     767.00000000     758.00000000     754.00000000     754.00000000     755.00000000     756.00000000     758.00000000     751.00000000     747.00000000     754.00000000     769.00000000     786.00000000     787.00000000     797.00000000     813.00000000     820.00000000     828.00000000     838.00000000
         847.00000000     856.00000000     860.00000000     858.00000000     865.00000000     862.00000000     842.00000000     819.00000000     806.00000000     815.00000000     826.00000000     847.00000000     880.00000000     908.00000000     942.00000000
         715.00000000     680.00000000     648.00000000     622.00000000     615.00000000     613.00000000     615.00000000     613.00000000     611.00000000     617.00000000     623.00000000     625.00000000     647.00000000     642.00000000     630.00000000     624.00000000     632.00000000     632.00000000     629.00000000     624.00000000
         623.00000000     625.00000000     633.00000000     634.00000000     635.00000000     638.00000000     643.00000000     641.00000000     660.00000000     685.00000000     703.00000000     719.00000000     744.00000000     760.00000000     764.00000000     761.00000000     764.00000000     769.00000000     778.00000000     781.00000000
         775.00000000     771.00000000     767.00000000     758.00000000     754.00000000     754.00000000     755.00000000     756.00000000     758.00000000     751.00000000     747.00000000     754.00000000     769.00000000     786.00000000     787.00000000     797.00000000     813.00000000     820.00000000     828.00000000     838.00000000
         847.00000000     856.00000000     860.00000000     858.00000000     865.00000000     862.00000000     842.00000000     819.00000000     806.00000000     815.00000000     826.00000000     847.00000000     880.00000000     908.00000000     942.00000000
         715.00000000     680.00000000     648.00000000     622.00000000     615.00000000     613.00000000     615.00000000     613.00000000     611.00000000     617.00000000     623.00000000     625.00000000     647.00000000     642.00000000     630.00000000     624.00000000     632.00000000     632.00000000     629.00000000     624.00000000
         623.00000000     625.00000000     633.00000000     634.00000000     635.00000000     638.00000000     643.00000000     641.00000000     660.00000000     685.00000000     703.00000000     719.00000000     744.00000000     760.00000000     764.00000000     761.00000000     764.00000000     769.00000000     778.00000000     781.00000000
         775.00000000     771.00000000     767.00000000     758.00000000     754.00000000     754.00000000     755.00000000     756.00000000     758.00000000     751.00000000     747.00000000     754.00000000     769.00000000     786.00000000     787.00000000     797.00000000     813.00000000     820.00000000     828.00000000     838.00000000
         847.00000000     856.00000000     860.00000000     858.00000000     865.00000000     862.00000000     842.00000000     819.00000000     806.00000000     815.00000000     826.00000000     847.00000000     880.00000000     908.00000000     942.00000000
         715.00000000     680.00000000     648.00000000     622.00000000     615.00000000     613.00000000     615.00000000     613.00000000     611.00000000     617.00000000     623.00000000     625.00000000     647.00000000     642.00000000     630.00000000     624.00000000     632.00000000     632.00000000     629.00000000     624.00000000
         623.00000000     625.00000000     633.00000000     634.00000000     635.00000000     638.00000000     643.00000000     641.00000000     660.00000000     685.00000000     703.00000000     719.00000000     744.00000000     760.00000000     764.00000000     761.00000000     764.00000000     769.00000000     778.00000000     781.00000000
         775.00000000     771.00000000     767.00000000     758.00000000     754.00000000     754.00000000     755.00000000     756.00000000     758.00000000     751.00000000     747.00000000     754.00000000     769.00000000     786.00000000     787.00000000     797.00000000     813.00000000     820.00000000     828.00000000     838.00000000
         847.00000000     856.00000000     860.00000000     858.00000000     865.00000000     862.00000000     842.00000000     819.00000000     806.00000000     815.00000000     826.00000000     847.00000000     880.00000000     908.00000000     942.00000000
         715.00000000     680.00000000     648.00000000     622.00000000     615.00000000     613.00000000     615.00000000     613.00000000     611.00000000     617.00000000     623.00000000     625.00000000     647.00000000     642.00000000     630.00000000     624.00000000     632.00000000     632.00000000     629.00000000     624.00000000
         623.00000000     625.00000000     633.00000000     634.00000000     635.00000000     638.00000000     643.00000000     641.00000000     660.00000000     685.00000000     703.00000000     719.00000000     744.00000000     760.00000000     764.00000000     761.00000000     764.00000000     769.00000000     778.00000000     781.00000000
         775.00000000     771.00000000     767.00000000     758.00000000     754.00000000     754.00000000     755.00000000     756.00000000     758.00000000     751.00000000     747.00000000     754.00000000     769.00000000     786.00000000     787.00000000     797.00000000     813.00000000     820.00000000     828.00000000     838.00000000
         847.00000000     856.00000000     860.00000000     858.00000000     865.00000000     862.00000000     842.00000000     819.00000000     806.00000000     815.00000000     826.00000000     847.00000000     880.00000000     908.00000000     942.00000000
         715.00000000     680.00000000     648.00000000     622.00000000     615.00000000     613.00000000     615.00000000     613.00000000     611.00000000     617.00000000     623.00000000     625.00000000     647.00000000     642.00000000     630.00000000     624.00000000     632.00000000     632.00000000     629.00000000     624.00000000
         623.00000000     625.00000000     633.00000000     634.00000000     635.00000000     638.00000000     643.00000000     641.00000000     660.00000000     685.00000000     703.00000000     719.00000000     744.00000000     760.00000000     764.00000000     761.00000000     764.00000000     769.00000000     778.00000000     781.00000000
         775.00000000     771.00000000     767.00000000     758.00000000     754.00000000     754.00000000     755.00000000     756.00000000     758.00000000     751.00000000     747.00000000     754.00000000     769.00000000     786.00000000     787.00000000     797.00000000     813.00000000     820.00000000     828.00000000     838.00000000
         847.00000000     856.00000000     860.00000000     858.00000000     865.00000000     862.00000000     842.00000000     819.00000000     806.00000000     815.00000000     826.00000000     847.00000000     880.00000000     908.00000000     942.00000000
         715.00000000     680.00000000     648.00000000     622.00000000     615.00000000     613.00000000     615.00000000     613.00000000     611.00000000     617.00000000     623.00000000     625.00000000     647.00000000     642.00000000     630.00000000     624.00000000     632.00000000     632.00000000     629.00000000     624.00000000
         623.00000000     625.00000000     633.00000000     634.00000000     635.00000000     638.00000000     643.00000000     641.00000000     660.00000000     685.00000000     703.00000000     719.00000000     744.00000000     760.00000000     764.00000000     761.00000000     764.00000000     769.00000000     778.00000000     781.00000000
         775.00000000     771.00000000     767.00000000     758.00000000     754.00000000     754.00000000     755.00000000     756.00000000     758.00000000     751.00000000     747.00000000     754.00000000     769.00000000     786.00000000     787.00000000     797.00000000     813.00000000     820.00000000     828.00000000     838.00000000
         847.00000000     856.00000000     860.00000000     858.00000000     865.00000000     862.00000000     842.00000000     819.00000000     806.00000000     815.00000000     826.00000000     847.00000000     880.00000000     908.00000000     942.00000000
         715.00000000     680.00000000     648.00000000     622.00000000     615.00000000     613.00000000     615.00000000     613.00000000     611.00000000     617.00000000     623.00000000     625.00000000     647.00000000     642.00000000     630.00000000     624.00000000     632.00000000     632.00000000     629.00000000     624.00000000
         623.00000000     625.00000000     633.00000000     634.00000000     635.00000000     638.00000000     643.00000000     641.00000000     660.00000000     685.00000000     703.00000000     719.00000000     744.00000000     760.00000000     764.00000000     761.00000000     764.00000000     769.00000000     778.00000000     781.00000000
         775.00000000     771.00000000     767.00000000     758.00000000     754.00000000     754.00000000     755.00000000     756.00000000     758.00000000     751.00000000     747.00000000     754.00000000     769.00000000     786.00000000     787.00000000     797.00000000     813.00000000     820.00000000     828.00000000     838.00000000
         847.00000000     856.00000000     860.00000000     858.00000000     865.00000000     862.00000000     842.00000000     819.00000000     806.00000000     815.00000000     826.00000000     847.00000000     880.00000000     908.00000000     942.00000000
         715.00000000     680.00000000     648.00000000     622.00000000     615.00000000     613.00000000     615.00000000     613.00000000     611.00000000     617.00000000     623.00000000     625.00000000     647.00000000     642.00000000     630.00000000     624.00000000     632.00000000     632.00000000     629.00000000     624.00000000
         623.00000000     625.00000000     633.00000000     634.00000000     635.00000000     638.00000000     643.00000000     641.00000000     660.00000000     685.00000000     703.00000000     719.00000000     744.00000000     760.00000000     764.00000000     761.00000000     764.00000000     769.00000000     778.00000000     781.00000000
         775.00000000     771.00000000     767.00000000     758.00000000     754.00000000     754.00000000     755.00000000     756.00000000     758.00000000     751.00000000     747.00000000     754.00000000     769.00000000     786.00000000     787.00000000     797.00000000     813.00000000     820.00000000     828.00000000     838.00000000
         847.00000000     856.00000000     860.00000000     858.00000000     865.00000000     862.00000000     842.00000000     819.00000000     806.00000000     815.00000000     826.00000000     847.00000000     880.00000000     908.00000000     942.00000000
         715.00000000     680.00000000     648.00000000     622.00000000     615.00000000     613.00000000     615.00000000     613.00000000     611.00000000     617.00000000     623.00000000     625.00000000     647.00000000     642.00000000     630.00000000     624.00000000     632.00000000     632.00000000     629.00000000     624.00000000
         623.00000000     625.00000000     633.00000000     634.00000000     635.00000000     638.00000000     643.00000000     641.00000000     660.00000000     685.00000000     703.00000000     719.00000000     744.00000000     760.00000000     764.00000000     761.00000000     764.00000000     769.00000000     778.00000000     781.00000000
         775.00000000     771.00000000     767.00000000     758.00000000     754.00000000     754.00000000     755.00000000     756.00000000     758.00000000     751.00000000     747.00000000     754.00000000     769.00000000     786.00000000     787.00000000     797.00000000     813.00000000     820.00000000     828.00000000     838.00000000
         847.00000000     856.00000000     860.00000000     858.00000000     865.00000000     862.00000000     842.00000000     819.00000000     806.00000000     815.00000000     826.00000000     847.00000000     880.00000000     908.00000000     942.00000000
         715.00000000     680.00000000     648.00000000     622.00000000     615.00000000     613.00000000     615.00000000     613.00000000     611.00000000     617.00000000     623.00000000     625.00000000     647.00000000     642.00000000     630.00000000     624.00000000     632.00000000     632.00000000     629.00000000     624.00000000
         623.00000000     625.00000000     633.00000000     634.00000000     635.00000000     638.00000000     643.00000000     641.00000000     660.00000000     685.00000000     703.00000000     719.00000000     744.00000000     760.00000000     764.00000000     761.00000000     764.00000000     769.00000000     778.00000000     781.00000000
         775.00000000     771.00000000     767.00000000     758.00000000     754.00000000     754.00000000     755.00000000     756.00000000     758.00000000     751.00000000     747.00000000     754.00000000     769.00000000     786.00000000     787.00000000     797.00000000     813.00000000     820.00000000     828.00000000     838.00000000
         847.00000000     856.00000000     860.00000000     858.00000000     865.00000000     862.00000000     842.00000000     819.00000000     806.00000000     815.00000000     826.00000000     847.00000000     880.00000000     908.00000000     942.00000000
         715.00000000     680.00000000     648.00000000     622.00000000     615.00000000     613.00000000     615.00000000     613.00000000     611.00000000     617.00000000     623.00000000     625.00000000     647.00000000     642.00000000     630.00000000     624.00000000     632.00000000     632.00000000     629.00000000     624.00000000
         623.00000000     625.00000000     633.00000000     634.00000000     635.00000000     638.00000000     643.00000000     641.00000000     660.00000000     685.00000000     703.00000000     719.00000000     744.00000000     760.00000000     764.00000000     761.00000000     764.00000000     769.00000000     778.00000000     781.00000000
         775.00000000     771.00000000     767.00000000     758.00000000     754.00000000     754.00000000     755.00000000     756.00000000     758.00000000     751.00000000     747.00000000     754.00000000     769.00000000     786.00000000     787.00000000     797.00000000     813.00000000     820.00000000     828.00000000     838.00000000
         847.00000000     856.00000000     860.00000000     858.00000000     865.00000000     862.00000000     842.00000000     819.00000000     806.00000000     815.00000000     826.00000000     847.00000000     880.00000000     908.00000000     942.00000000
         715.00000000     680.00000000     648.00000000     622.00000000     615.00000000     613.00000000     615.00000000     613.00000000     611.00000000     617.00000000     623.00000000     625.00000000     647.00000000     642.00000000     630.00000000     624.00000000     632.00000000     632.00000000     629.00000000     624.00000000
         623.00000000     625.00000000     633.00000000     634.00000000     635.00000000     638.00000000     643.00000000     641.00000000     660.00000000     685.00000000     703.00000000     719.00000000     744.00000000     760.00000000     764.00000000     761.00000000     764.00000000     769.00000000     778.00000000     781.00000000
         775.00000000     771.00000000     767.00000000     758.00000000     754.00000000     754.00000000     755.00000000     756.00000000     758.00000000     751.00000000     747.00000000     754.00000000     769.00000000     786.00000000     787.00000000     797.00000000     813.00000000     820.00000000     828.00000000     838.00000000
         847.00000000     856.00000000     860.00000000     858.00000000     865.00000000     862.00000000     842.00000000     819.00000000     806.00000000     815.00000000     826.00000000     847.00000000     880.00000000     908.00000000     942.00000000
         715.00000000     680.00000000     648.00000000     622.00000000     615.00000000     613.00000000     615.00000000     613.00000000     611.00000000     617.00000000     623.00000000     625.00000000     647.00000000     642.00000000     630.00000000     624.00000000     632.00000000     632.00000000     629.00000000     624.00000000
         623.00000000     625.00000000     633.00000000     634.00000000     635.00000000     638.00000000     643.00000000     641.00000000     660.00000000     685.00000000     703.00000000     719.00000000     744.00000000     760.00000000     764.00000000     761.00000000     764.00000000     769.00000000     778.00000000     781.00000000
         775.00000000     771.00000000     767.00000000     758.00000000     754.00000000     754.00000000     755.00000000     756.00000000     758.00000000     751.00000000     747.00000000     754.00000000     769.00000000     786.00000000     787.00000000     797.00000000     813.00000000     820.00000000     828.00000000     838.00000000
         847.00000000     856.00000000     860.00000000     858.00000000     865.00000000     862.00000000     842.00000000     819.00000000     806.00000000     815.00000000     826.00000000     847.00000000     880.00000000     908.00000000     942.00000000