# File generated by Flopy version 3.3.2 on 02/07/2021 at 14:54:10.
BEGIN options
  XORIGIN  1.10238512E+06
  YORIGIN  1.28136222E+06
END options

BEGIN dimensions
  NLAY  20
  NROW  66
  NCOL  92
END dimensions

BEGIN griddata
  delr
    INTERNAL  FACTOR  1.0
        50.00000000      50.00000000      50.00000000      50.00000000      50.00000000      50.00000000      50.00000000      50.00000000      50.00000000      50.00000000      50.00000000      50.00000000      50.00000000      50.00000000      50.00000000      50.00000000      50.00000000      50.00000000      50.00000000      50.00000000
        50.00000000      50.00000000      50.00000000      50.00000000      50.00000000      50.00000000      50.00000000      50.00000000      50.00000000      50.00000000      50.00000000      50.00000000      50.00000000      50.00000000      50.00000000      50.00000000      50.00000000      50.00000000      50.00000000      50.00000000
        50.00000000      50.00000000      50.00000000      50.00000000      50.00000000      50.00000000      50.00000000      50.00000000      50.00000000      50.00000000      20.00000000      20.00000000      20.00000000      20.00000000      20.00000000      20.00000000      20.00000000      20.00000000      20.00000000      20.00000000
        20.00000000      20.00000000      20.00000000      20.00000000      20.00000000      20.00000000      20.00000000      20.00000000      20.00000000      20.00000000      20.00000000      20.00000000      20.00000000      20.00000000      20.00000000      20.00000000      20.00000000      20.00000000      20.00000000      50.00000000
        50.00000000      50.00000000      50.00000000      50.00000000      50.00000000      50.00000000      50.00000000      50.00000000      50.00000000      50.00000000      50.00000000      50.00000000
  delc
    INTERNAL  FACTOR  1.0
        50.00000000      50.00000000      50.00000000      50.00000000      50.00000000      50.00000000      50.00000000      50.00000000      50.00000000      50.00000000      50.00000000      50.00000000      50.00000000      50.00000000      50.00000000      50.00000000      50.00000000      50.00000000      50.00000000      50.00000000
        50.00000000      50.00000000      50.00000000      50.00000000      50.00000000      50.00000000      50.00000000      50.00000000      50.00000000      50.00000000      50.00000000      50.00000000      50.00000000      50.00000000      50.00000000      50.00000000      50.00000000      50.00000000      50.00000000      50.00000000
        50.00000000      20.00000000      20.00000000      20.00000000      20.00000000      20.00000000      20.00000000      20.00000000      20.00000000      20.00000000      50.00000000      50.00000000      50.00000000      50.00000000      50.00000000      50.00000000      50.00000000      50.00000000      50.00000000      50.00000000
        50.00000000      50.00000000      50.00000000      50.00000000      50.00000000      50.00000000
  top
    INTERNAL  FACTOR  1.0
       721.00000000     693.00000000     664.00000000     636.00000000     621.00000000     617.00000000     620.00000000     620.00000000     619.00000000     632.00000000     642.00000000     652.00000000     661.00000000     649.00000000     629.00000000     623.00000000     626.00000000     627.00000000     627.00000000     623.00000000
       623.00000000     624.00000000     634.00000000     636.00000000     633.00000000     635.00000000     638.00000000     641.00000000     659.00000000     682.00000000     706.00000000     726.00000000     747.00000000     762.00000000     757.00000000     753.00000000     761.00000000     766.00000000     774.00000000     775.00000000
       769.00000000     767.00000000     766.00000000     756.00000000     747.00000000     748.00000000     749.00000000     752.00000000     757.00000000     748.00000000     742.00000000     744.00000000     747.00000000     751.00000000     753.00000000     760.00000000     773.00000000     777.00000000     781.00000000     781.00000000
       782.00000000     784.00000000     785.00000000     792.00000000     797.00000000     806.00000000     810.00000000     811.00000000     814.00000000     817.00000000     826.00000000     836.00000000     839.00000000     844.00000000     846.00000000     850.00000000     854.00000000     857.00000000     860.00000000     858.00000000
       855.00000000     860.00000000     860.00000000     851.00000000     830.00000000     808.00000000     811.00000000     823.00000000     844.00000000     872.00000000     903.00000000     931.00000000
       751.00000000     722.00000000     695.00000000     668.00000000     651.00000000     641.00000000     651.00000000     655.00000000     659.00000000     675.00000000     681.00000000     689.00000000     676.00000000     651.00000000     627.00000000     624.00000000     622.00000000     622.00000000     623.00000000     624.00000000
       621.00000000     621.00000000     628.00000000     635.00000000     633.00000000     633.00000000     627.00000000     632.00000000     641.00000000     658.00000000     695.00000000     723.00000000     738.00000000     750.00000000     741.00000000     742.00000000     754.00000000     764.00000000     763.00000000     760.00000000
       762.00000000     760.00000000     760.00000000     752.00000000     742.00000000     741.00000000     741.00000000     746.00000000     750.00000000     746.00000000     740.00000000     740.00000000     741.00000000     748.00000000     752.00000000     762.00000000     767.00000000     767.00000000     767.00000000     768.00000000
       772.00000000     777.00000000     779.00000000     785.00000000     788.00000000     795.00000000     800.00000000     803.00000000     812.00000000     817.00000000     827.00000000     834.00000000     838.00000000     845.00000000     847.00000000     852.00000000     855.00000000     856.00000000     856.00000000     855.00000000
       846.00000000     846.00000000     849.00000000     845.00000000     822.00000000     804.00000000     810.00000000     823.00000000     846.00000000     874.00000000     899.00000000     923.00000000
       780.00000000     744.00000000     711.00000000     691.00000000     689.00000000     684.00000000     686.00000000     688.00000000     701.00000000     710.00000000     703.00000000     692.00000000     667.00000000     647.00000000     629.00000000     624.19519043     608.00000000     608.17834473     609.82794189     610.30688477
       611.12615967     611.30737305     612.00000000     612.25238037     612.00000000     612.00000000     614.00000000     615.61016846     616.00000000     616.74768066     646.71081543     686.64190674     706.77410889     708.00000000     708.71313477     731.59094238     746.62512207     758.00000000     744.18072510     746.43652344
       746.09552002     744.44244385     740.75079346     735.85107422     729.47149658     721.17999268     724.00000000     731.06439209     736.38958740     735.48571777     725.77655029     712.00000000     711.47229004     716.28613281     724.74926758     724.59088135     724.51123047     727.57379150     737.80169678     745.22546387
       765.74096680     773.53997803     781.27801514     781.66247559     780.48425293     785.40722656     789.71484375     796.24694824     803.61071777     808.00000000     820.56518555     828.59844971     835.36584473     842.23760986     847.79956055     852.81225586     854.88482666     854.18273926     850.26464844     835.65765381
       823.01556396     824.00000000     841.28576660     838.00000000     813.00000000     794.00000000     806.00000000     824.00000000     841.00000000     860.00000000     886.00000000     915.00000000
       802.00000000     767.00000000     721.00000000     708.00000000     710.00000000     715.00000000     717.00000000     714.00000000     718.00000000     717.00000000     706.00000000     682.00000000     663.00000000     637.00000000     607.11993408     630.00000000     625.74645996     610.65960693     608.00000000     609.95599365
       610.00000000     610.00000000     611.78717041     616.58776855     617.82098389     617.80169678     618.01135254     620.07232666     621.42578125     624.00000000     625.67620850     669.51452637     673.29974365     676.48852539     701.31878662     731.94012451     748.55145264     758.78057861     753.63415527     728.40026855
       736.19897461     736.21008301     733.81176758     732.65258789     722.87695312     715.11096191     720.79699707     729.48907471     732.01354980     731.72448730     732.00000000     716.18933105     710.64990234     704.10516357     704.00000000     708.19305420     721.74780273     733.09863281     737.28930664     740.59228516
       749.16827393     761.98718262     764.15856934     769.86444092     771.18457031     779.66461182     794.49993896     804.38922119     811.16546631     814.00000000     821.82720947     828.29754639     835.78521729     845.53131104     850.68505859     854.00000000     854.00000000     850.32305908     844.35308838     830.37255859
       817.65429688     810.62335205     834.73406982     829.00000000     800.00000000     790.00000000     807.00000000     821.00000000     836.00000000     849.00000000     873.00000000     899.00000000
       814.00000000     781.00000000     740.00000000     734.00000000     734.00000000     734.00000000     731.00000000     716.00000000     711.00000000     707.00000000     695.00000000     674.00000000     649.00000000     625.00000000     606.26165771     609.67980957     624.00000000     624.00000000     613.30444336     610.99871826
       612.00000000     613.41290283     616.00000000     616.54351807     617.54968262     619.25323486     628.16491699     628.45690918     626.85870361     625.03454590     617.15496826     648.25299072     656.55474854     693.85797119     721.14782715     744.13629150     752.03125000     755.69677734     742.33215332     724.14984131
       719.85552979     719.68066406     722.02386475     726.85095215     717.52508545     710.14428711     718.89739990     724.37121582     726.87207031     726.11773682     723.40270996     709.41149902     705.06927490     703.50555420     710.53961182     722.58392334     732.42883301     737.23913574     743.43682861     744.68377686
       761.03753662     767.02661133     768.13751221     771.52319336     771.56658936     772.92260742     783.49273682     797.86846924     808.28222656     811.13226318     825.46875000     833.85168457     841.92840576     844.65325928     845.52075195     845.01995850     842.52722168     838.22576904     833.86187744     821.91760254
       809.28540039     808.67657471     822.72009277     809.00000000     788.00000000     791.00000000     807.00000000     820.00000000     828.00000000     847.00000000     866.00000000     894.00000000
       806.00000000     787.00000000     769.00000000     756.00000000     750.00000000     745.00000000     732.00000000     710.00000000     698.00000000     690.00000000     678.00000000     657.00000000     633.00000000     621.00000000     615.00000000     608.00000000     611.48590088     622.72406006     619.21820068     614.58581543
       613.63000488     616.09765625     616.53521729     617.16125488     617.88250732     624.00000000     631.08532715     641.75421143     638.00000000     630.43908691     617.59838867     639.12969971     665.13665771     695.05798340     727.48443604     747.85375977     754.62561035     746.60455322     729.32092285     714.15881348
       702.42944336     712.97766113     711.01403809     719.29864502     705.81408691     710.83703613     714.59338379     717.63928223     724.04248047     708.29589844     710.67980957     706.00091553     703.77325439     700.29412842     709.22479248     717.87866211     730.16778564     736.62231445     745.71545410     748.10449219
       760.77563477     764.06890869     769.87310791     776.16265869     779.29913330     788.13494873     793.23767090     797.88269043     806.46582031     810.96624756     822.36212158     828.70617676     834.14556885     834.96258545     834.73937988     831.54858398     827.48919678     821.65637207     818.19738770     809.47778320
       795.89758301     806.70892334     810.57812500     790.00000000     783.00000000     786.00000000     812.00000000     823.00000000     826.00000000     838.00000000     855.00000000     889.00000000
       792.00000000     787.00000000     781.00000000     773.00000000     761.00000000     753.00000000     733.00000000     716.00000000     696.00000000     678.00000000     663.00000000     642.00000000     626.00000000     621.00000000     617.00000000     608.00000000     608.94915771     612.00000000     620.07043457     616.09674072
       616.71606445     616.92041016     617.21929932     617.74438477     624.00000000     628.34210205     639.62133789     643.65954590     642.00000000     634.63311768     621.19128418     630.48199463     681.19500732     715.25616455     738.36920166     744.00000000     735.18652344     734.48504639     723.92315674     708.33447266
       696.12615967     701.07757568     704.12420654     701.80987549     697.66918945     700.08831787     706.77410889     703.59606934     712.05560303     700.00000000     698.00000000     697.01440430     694.00000000     698.30834961     702.00000000     706.73950195     718.74432373     730.17059326     738.05169678     741.87371826
       754.50006104     758.20672607     761.05932617     768.55914307     770.96002197     777.14050293     784.26153564     791.43420410     799.78820801     803.63885498     813.07055664     818.00000000     824.00000000     825.19830322     824.77789307     819.71881104     815.10797119     810.43103027     805.04345703     801.17626953
       791.22949219     804.00000000     798.00000000     780.00000000     780.00000000     791.00000000     818.00000000     842.00000000     847.00000000     854.00000000     865.00000000     889.00000000
       775.00000000     764.00000000     765.00000000     768.00000000     763.00000000     741.00000000     724.00000000     708.00000000     690.00000000     668.00000000     648.00000000     627.00000000     621.00000000     620.00000000     620.00000000     610.00000000     610.00000000     610.00000000     612.35388184     617.41406250
       617.46704102     617.74188232     617.95446777     620.26312256     623.32653809     628.00000000     643.51538086     644.95806885     644.83416748     644.08026123     625.77886963     626.55938721     662.42395020     701.39489746     734.00427246     742.36138916     730.46545410     715.93255615     712.00000000     707.78765869
       690.33166504     685.01281738     699.91589355     699.84814453     696.85083008     690.32031250     696.17614746     699.47387695     698.00000000     691.25909424     690.00000000     700.93450928     703.34136963     713.64990234     726.70300293     731.11297607     735.70843506     738.00476074     745.91833496     745.82037354
       744.92761230     753.44403076     758.68865967     766.77062988     770.90148926     783.72729492     792.66485596     804.36791992     809.78350830     812.27191162     814.22247314     815.00061035     813.12866211     811.59423828     811.12683105     808.00433350     804.95196533     800.76269531     795.02404785     787.57781982
       785.68371582     804.00000000     796.00000000     782.00000000     791.00000000     818.00000000     830.00000000     856.00000000     865.00000000     870.00000000     878.00000000     887.00000000
       765.00000000     750.00000000     746.00000000     750.00000000     746.00000000     725.00000000     707.00000000     689.00000000     675.00000000     654.00000000     630.00000000     622.00000000     621.00000000     620.00000000     608.00000000     608.87847900     610.00000000     610.00000000     613.43524170     616.80932617
       618.15875244     620.00000000     620.26647949     622.03472900     624.20703125     631.94299316     652.00000000     652.00000000     649.70007324     644.62554932     627.63519287     620.77593994     655.49505615     697.05133057     726.03375244     733.69458008     710.04968262     699.77624512     707.19183350     699.77947998
       686.83612061     682.71868896     707.47381592     708.48907471     695.74328613     678.00000000     690.43078613     686.00000000     694.00000000     688.99359131     704.33361816     712.69195557     717.16394043     723.73504639     732.16595459     736.00000000     739.24035645     743.15222168     749.92468262     750.00000000
       757.04040527     761.49047852     764.55273438     768.00000000     770.93347168     781.15423584     788.77423096     796.30786133     801.80462646     803.27246094     808.43554688     806.85516357     805.53411865     804.00000000     801.92578125     798.57153320     796.90618896     792.78271484     789.06097412     779.08813477
       788.18365479     804.00000000     793.00000000     781.00000000     789.00000000     812.00000000     835.00000000     857.00000000     875.00000000     884.00000000     882.00000000     875.00000000
       761.00000000     740.00000000     732.00000000     733.00000000     728.00000000     714.00000000     691.00000000     674.00000000     661.00000000     639.00000000     623.00000000     619.00000000     619.00000000     619.00000000     608.00000000     608.00000000     610.92926025     610.00000000     612.76745605     617.08508301
       618.29931641     620.00000000     621.62261963     623.39086914     625.21014404     648.78228760     653.79718018     653.22131348     648.98474121     645.98461914     631.10198975     621.82464600     643.44378662     676.93389893     713.86706543     719.16851807     702.72125244     690.26641846     694.00000000     688.34954834
       672.53857422     686.00000000     703.31011963     702.71917725     694.35223389     677.61071777     685.89520264     686.85845947     679.74908447     686.89886475     719.22985840     725.23132324     727.64770508     732.11236572     734.00000000     742.10296631     745.68054199     755.35235596     758.90051270     758.24945068
       759.10119629     761.17108154     765.21057129     768.33612061     770.00000000     775.12731934     779.26135254     783.23773193     787.22760010     789.82781982     791.34777832     791.65307617     791.77996826     789.42626953     788.69854736     786.93255615     784.77801514     780.78063965     779.14447021     773.60656738
       788.54455566     792.85351562     785.00000000     774.00000000     775.00000000     807.00000000     836.00000000     855.00000000     876.00000000     879.00000000     873.00000000     862.00000000
       761.00000000     745.00000000     726.00000000     713.00000000     709.00000000     700.00000000     677.00000000     663.00000000     647.00000000     629.00000000     620.00000000     618.00000000     620.00000000     619.00000000     608.02825928     608.15313721     610.55334473     610.00000000     614.60144043     618.00000000
       618.86663818     619.73815918     621.73406982     624.03424072     634.62518311     654.82818604     656.38476562     656.99438477     652.33569336     646.79876709     639.70745850     622.33544922     629.77996826     657.11572266     694.52172852     702.99749756     684.36566162     666.16473389     678.90887451     669.12335205
       674.68066406     686.99511719     695.10949707     693.62561035     690.73828125     679.00915527     671.07006836     683.70159912     670.89337158     694.14318848     716.74755859     734.74566650     738.00000000     754.22167969     755.23077393     757.51934814     760.06903076     765.75512695     763.83380127     760.90246582
       760.53204346     766.50000000     770.80957031     772.00000000     772.00000000     772.00000000     773.30010986     775.93029785     777.84698486     777.50006104     779.36474609     779.62371826     779.36743164     781.41412354     782.00000000     779.41070557     775.24804688     771.46447754     764.77233887     772.47821045
       791.49902344     792.00000000     778.00000000     771.00000000     774.00000000     808.00000000     834.00000000     852.00000000     868.00000000     869.00000000     861.00000000     850.00000000
       761.00000000     749.00000000     727.00000000     709.00000000     695.00000000     683.00000000     675.00000000     665.00000000     656.00000000     633.00000000     618.00000000     621.00000000     620.00000000     620.00000000     608.18402100     608.12457275     610.00000000     610.17535400     618.00000000     620.00000000
       620.00000000     620.17700195     622.65100098     625.02313232     639.80462646     659.30072021     660.92364502     662.30932617     661.32623291     649.22790527     645.26324463     625.43066406     624.00000000     633.05572510     665.14239502     677.45318604     664.25549316     660.04919434     659.99414062     664.00140381
       677.29241943     678.37609863     684.28326416     681.66143799     680.60095215     685.16552734     664.16595459     676.30786133     670.16125488     710.08001709     727.55767822     741.25994873     746.36926270     752.69183350     758.34814453     761.27386475     763.23480225     765.18383789     764.48455811     764.49755859
       766.67254639     773.40057373     777.13110352     775.17260742     774.13214111     772.69268799     772.00000000     772.00000000     771.32415771     770.55700684     768.59442139     768.87719727     769.85290527     770.59899902     771.47155762     769.10614014     760.93585205     760.67572021     757.77600098     775.02935791
       787.57855225     779.00000000     767.00000000     767.00000000     778.00000000     809.00000000     833.00000000     853.00000000     863.00000000     856.00000000     856.00000000     841.00000000
       750.00000000     738.00000000     723.00000000     706.00000000     698.00000000     692.00000000     686.00000000     676.00000000     657.00000000     627.00000000     618.00000000     622.00000000     622.00000000     622.00000000     608.33978271     608.00000000     611.78240967     612.00000000     619.37493896     620.00000000
       620.11993408     621.41748047     623.63256836     625.84918213     642.29431152     659.39532471     671.69232178     680.00000000     674.78332520     651.92645264     646.92590332     632.58825684     628.00000000     624.00000000     631.16925049     655.12304688     655.37493896     652.00000000     657.65563965     658.47949219
       660.45532227     669.66693115     666.10040283     669.08129883     669.03503418     678.00000000     658.78765869     662.10162354     663.40087891     693.42645264     713.57348633     722.47149658     729.11590576     732.69537354     743.50720215     750.79211426     753.88690186     756.12048340     760.64038086     763.60247803
       772.53613281     777.60107422     778.00000000     778.98535156     778.67651367     779.19262695     778.00000000     774.69549561     770.97320557     768.50885010     764.23706055     763.08886719     762.04022217     762.00000000     762.50476074     758.49768066     747.07012939     751.75854492     758.72399902     770.88012695
       772.13641357     761.00000000     756.00000000     770.00000000     789.00000000     817.00000000     831.00000000     849.00000000     856.00000000     855.00000000     861.00000000     841.00000000
       732.00000000     729.00000000     718.00000000     706.00000000     697.00000000     687.00000000     682.00000000     673.00000000     652.00000000     624.00000000     621.00000000     623.00000000     622.00000000     621.00000000     608.40917969     608.00000000     612.00000000     613.52905273     620.00000000     620.92443848
       622.24609375     623.66485596     625.51922607     626.55682373     648.49743652     666.00000000     676.36279297     680.00000000     682.37457275     667.98559570     653.45953369     640.52380371     628.79644775     628.00000000     624.12670898     638.13366699     647.06811523     649.15600586     654.03692627     652.98217773
       656.41918945     656.46582031     657.63665771     657.39672852     657.75250244     658.96875000     656.00000000     656.00000000     663.18109131     681.09442139     696.05395508     706.08178711     708.21844482     720.70843506     727.72784424     743.32128906     746.64727783     752.42138672     761.62677002     765.46606445
       772.49829102     774.12957764     777.82031250     777.21472168     776.78717041     773.36651611     771.02374268     768.99414062     766.50720215     765.10278320     761.98620605     756.00000000     755.60113525     755.26440430     755.38348389     744.52789307     740.00000000     740.00000000     742.31048584     751.34918213
       753.00000000     749.00000000     750.00000000     766.00000000     808.00000000     825.00000000     833.00000000     845.00000000     846.00000000     852.00000000     860.00000000     845.00000000
       715.00000000     716.00000000     709.00000000     700.00000000     689.00000000     677.00000000     667.00000000     659.00000000     645.00000000     625.00000000     623.00000000     622.00000000     621.00000000     624.00000000     608.46130371     608.00000000     612.00000000     616.99243164     620.00000000     621.65411377
       624.14788818     625.69390869     627.39471436     629.99279785     652.00000000     666.63604736     678.24176025     685.10089111     687.01196289     685.07458496     675.25366211     656.18426514     631.84375000     629.84735107     628.62695312     633.32769775     638.13873291     638.00000000     649.98724365     651.67443848
       652.22833252     653.55895996     651.51623535     653.61462402     656.00000000     656.00000000     656.00000000     656.00000000     662.46997070     671.63793945     685.70312500     698.69189453     703.10754395     713.25140381     724.32366943     732.81842041     743.71954346     754.07702637     761.65405273     763.27349854
       767.22912598     767.61132812     767.67065430     767.34631348     768.00000000     768.50433350     766.60321045     765.03448486     762.43450928     761.96240234     759.44659424     757.14776611     755.31866455     752.25079346     749.07830811     731.56298828     731.79193115     729.60174561     730.00000000     738.00000000
       739.00000000     743.00000000     755.00000000     787.00000000     811.00000000     817.00000000     821.00000000     837.00000000     836.00000000     843.00000000     854.00000000     847.00000000
       706.00000000     696.00000000     690.00000000     684.00000000     677.00000000     671.00000000     659.00000000     646.00000000     638.00000000     624.00000000     624.00000000     624.00000000     622.00000000     623.00000000     608.51342773     609.33770752     612.36743164     620.00000000     620.76855469     623.41534424
       625.61224365     629.37762451     642.97198486     639.12469482     651.91009521     668.54022217     686.17779541     691.27532959     692.32183838     688.45635986     684.24963379     681.43920898     652.99432373     633.83905029     628.42303467     632.37188721     636.05786133     636.45684814     637.45703125     648.68499756
       650.03491211     648.65972900     648.45269775     650.69232178     653.16003418     654.71545410     656.79071045     660.14111328     663.27819824     668.03338623     680.43572998     690.78509521     694.82489014     705.82397461     718.00000000     724.71289062     739.79724121     747.36108398     750.53912354     752.85675049
       758.51269531     757.59814453     755.05291748     756.12963867     755.52874756     755.16400146     753.50439453     753.11187744     752.88305664     752.67254639     752.55059814     750.29876709     749.88146973     748.31091309     747.26940918     734.06127930     718.00000000     738.00000000     730.00000000     728.00000000
       731.00000000     749.00000000     775.00000000     787.00000000     800.00000000     802.00000000     802.00000000     821.00000000     831.00000000     848.00000000     856.00000000     847.00000000
       699.00000000     689.00000000     683.00000000     676.00000000     667.00000000     664.00000000     659.00000000     645.00000000     635.00000000     627.00000000     625.00000000     626.00000000     624.00000000     622.00000000     608.99224854     610.00000000     614.00000000     618.00000000     622.93804932     626.16064453
       630.00000000     630.00000000     641.95513916     650.25360107     655.72576904     668.49334717     688.92504883     700.44329834     702.00000000     701.28015137     696.67968750     692.82702637     682.52172852     643.80902100     628.00000000     632.00000000     634.10375977     634.51586914     636.02709961     640.52148438
       640.16369629     642.00000000     643.44354248     646.00000000     650.00000000     652.25738525     654.42388916     658.00000000     664.00000000     669.71362305     678.75811768     698.61096191     705.19366455     714.03228760     723.13269043     734.75036621     740.92102051     746.26745605     748.58642578     750.01721191
       750.17834473     747.89825439     746.78320312     746.87103271     746.58172607     746.66339111     747.26025391     747.16265869     745.77441406     745.16058350     741.96362305     740.50823975     739.27435303     740.07611084     741.53540039     750.00000000     744.00000000     738.00000000     728.00000000     722.00000000
       732.00000000     749.00000000     764.00000000     776.00000000     786.00000000     793.00000000     798.00000000     812.00000000     839.00000000     853.00000000     858.00000000     846.00000000